/*---------------------------------------------------------------------------*\
| =========                 |                                                 |
| \\      /  F ield         | OpenFOAM: The Open Source CFD Toolbox           |
|  \\    /   O peration     | Version:  v2106                                 |
|   \\  /    A nd           | Website:  www.openfoam.com                      |
|    \\/     M anipulation  |                                                 |
\*---------------------------------------------------------------------------*/
Build  : _c15bfde3cb-20210624 OPENFOAM=2106
Arch   : "LSB;label=32;scalar=64"
Exec   : laplacianFoamLandNl
Date   : Sep 22 2022
Time   : 15:31:40
Host   : ites-fps-ruanLX
PID    : 50761
I/O    : uncollated
Case   : /home/ruan/Desktop/Shenhui_ruan/OpenFOAM/OpenFOAMsourcecode/laplacianFoamROM_LandNl/svdtest_2
nProcs : 1
trapFpe: Floating point exception trapping enabled (FOAM_SIGFPE).
fileModificationChecking : Monitoring run-time modified files using timeStampMaster (fileModificationSkew 5, maxFileModificationPolls 20)
allowSystemOperations : Allowing user-supplied system call operations

// * * * * * * * * * * * * * * * * * * * * * * * * * * * * * * * * * * * * * //
Create time

Create mesh for time = 0


SIMPLE: no convergence criteria found. Calculations will run for 100 steps.

Reading field T

Reading diffusivity DT

DTT1: 1e-06
DTT2: 0.001
No finite volume options present

Calculating temperature distribution

snapshots extract
time Interval of snapshots is: 0.1

Time = 0.05

DICPCG:  Solving for T, Initial residual = 1, Final residual = 2.3689564e-07, No Iterations 10
DICPCG:  Solving for T, Initial residual = 8.534714e-08, Final residual = 8.534714e-08, No Iterations 0
DICPCG:  Solving for T, Initial residual = 8.534714e-08, Final residual = 8.534714e-08, No Iterations 0
ExecutionTime = 0.03 s  ClockTime = 0 s

Time = 0.1

DICPCG:  Solving for T, Initial residual = 0.13485968, Final residual = 5.1773979e-07, No Iterations 6
DICPCG:  Solving for T, Initial residual = 4.1951209e-07, Final residual = 4.1951209e-07, No Iterations 0
DICPCG:  Solving for T, Initial residual = 4.1951209e-07, Final residual = 4.1951209e-07, No Iterations 0
ExecutionTime = 0.03 s  ClockTime = 0 s

runTime.value(): 0.1
snapshotsTime: 0.1
Time = 0.15

DICPCG:  Solving for T, Initial residual = 0.050693576, Final residual = 1.920144e-07, No Iterations 6
DICPCG:  Solving for T, Initial residual = 1.7468159e-07, Final residual = 1.7468159e-07, No Iterations 0
DICPCG:  Solving for T, Initial residual = 1.7468159e-07, Final residual = 1.7468159e-07, No Iterations 0
ExecutionTime = 0.04 s  ClockTime = 0 s

Time = 0.2

DICPCG:  Solving for T, Initial residual = 0.030226177, Final residual = 8.7076349e-07, No Iterations 5
DICPCG:  Solving for T, Initial residual = 8.209231e-07, Final residual = 8.209231e-07, No Iterations 0
DICPCG:  Solving for T, Initial residual = 8.209231e-07, Final residual = 8.209231e-07, No Iterations 0
ExecutionTime = 0.04 s  ClockTime = 0 s

runTime.value(): 0.2
snapshotsTime: 0.2
Time = 0.25

DICPCG:  Solving for T, Initial residual = 0.022410178, Final residual = 6.004659e-07, No Iterations 5
DICPCG:  Solving for T, Initial residual = 5.7367996e-07, Final residual = 5.7367996e-07, No Iterations 0
DICPCG:  Solving for T, Initial residual = 5.7367996e-07, Final residual = 5.7367996e-07, No Iterations 0
ExecutionTime = 0.04 s  ClockTime = 0 s

Time = 0.3

DICPCG:  Solving for T, Initial residual = 0.01829532, Final residual = 4.4892978e-07, No Iterations 5
DICPCG:  Solving for T, Initial residual = 4.3286203e-07, Final residual = 4.3286203e-07, No Iterations 0
DICPCG:  Solving for T, Initial residual = 4.3286203e-07, Final residual = 4.3286203e-07, No Iterations 0
ExecutionTime = 0.04 s  ClockTime = 0 s

Time = 0.35

DICPCG:  Solving for T, Initial residual = 0.015663548, Final residual = 3.588196e-07, No Iterations 5
DICPCG:  Solving for T, Initial residual = 3.4796995e-07, Final residual = 3.4796995e-07, No Iterations 0
DICPCG:  Solving for T, Initial residual = 3.4796995e-07, Final residual = 3.4796995e-07, No Iterations 0
ExecutionTime = 0.04 s  ClockTime = 0 s

runTime.value(): 0.35
snapshotsTime: 0.3
Time = 0.4

DICPCG:  Solving for T, Initial residual = 0.013793133, Final residual = 2.9740062e-07, No Iterations 5
DICPCG:  Solving for T, Initial residual = 2.8944982e-07, Final residual = 2.8944982e-07, No Iterations 0
DICPCG:  Solving for T, Initial residual = 2.8944982e-07, Final residual = 2.8944982e-07, No Iterations 0
ExecutionTime = 0.04 s  ClockTime = 0 s

Time = 0.45

DICPCG:  Solving for T, Initial residual = 0.012380073, Final residual = 2.5306235e-07, No Iterations 5
DICPCG:  Solving for T, Initial residual = 2.4716419e-07, Final residual = 2.4716419e-07, No Iterations 0
DICPCG:  Solving for T, Initial residual = 2.4716419e-07, Final residual = 2.4716419e-07, No Iterations 0
ExecutionTime = 0.05 s  ClockTime = 0 s

runTime.value(): 0.45
snapshotsTime: 0.4
Time = 0.5

DICPCG:  Solving for T, Initial residual = 0.011269731, Final residual = 2.2066669e-07, No Iterations 5
DICPCG:  Solving for T, Initial residual = 2.162234e-07, Final residual = 2.162234e-07, No Iterations 0
DICPCG:  Solving for T, Initial residual = 2.162234e-07, Final residual = 2.162234e-07, No Iterations 0
ExecutionTime = 0.05 s  ClockTime = 0 s

Time = 0.55

DICPCG:  Solving for T, Initial residual = 0.010366895, Final residual = 1.9632328e-07, No Iterations 5
DICPCG:  Solving for T, Initial residual = 1.9253571e-07, Final residual = 1.9253571e-07, No Iterations 0
DICPCG:  Solving for T, Initial residual = 1.9253571e-07, Final residual = 1.9253571e-07, No Iterations 0
ExecutionTime = 0.05 s  ClockTime = 0 s

runTime.value(): 0.55
snapshotsTime: 0.5
Time = 0.6

DICPCG:  Solving for T, Initial residual = 0.0096103118, Final residual = 1.7724515e-07, No Iterations 5
DICPCG:  Solving for T, Initial residual = 1.7415626e-07, Final residual = 1.7415626e-07, No Iterations 0
DICPCG:  Solving for T, Initial residual = 1.7415626e-07, Final residual = 1.7415626e-07, No Iterations 0
ExecutionTime = 0.05 s  ClockTime = 0 s

runTime.value(): 0.6
snapshotsTime: 0.6
Time = 0.65

DICPCG:  Solving for T, Initial residual = 0.0089760003, Final residual = 1.6142086e-07, No Iterations 5
DICPCG:  Solving for T, Initial residual = 1.5886379e-07, Final residual = 1.5886379e-07, No Iterations 0
DICPCG:  Solving for T, Initial residual = 1.5886379e-07, Final residual = 1.5886379e-07, No Iterations 0
ExecutionTime = 0.05 s  ClockTime = 0 s

Time = 0.7

DICPCG:  Solving for T, Initial residual = 0.0084362767, Final residual = 1.4708769e-07, No Iterations 5
DICPCG:  Solving for T, Initial residual = 1.4495795e-07, Final residual = 1.4495795e-07, No Iterations 0
DICPCG:  Solving for T, Initial residual = 1.4495795e-07, Final residual = 1.4495795e-07, No Iterations 0
ExecutionTime = 0.06 s  ClockTime = 0 s

runTime.value(): 0.7
snapshotsTime: 0.7
Time = 0.75

DICPCG:  Solving for T, Initial residual = 0.0079640543, Final residual = 9.2504282e-07, No Iterations 4
DICPCG:  Solving for T, Initial residual = 9.1262758e-07, Final residual = 9.1262758e-07, No Iterations 0
DICPCG:  Solving for T, Initial residual = 9.1262758e-07, Final residual = 9.1262758e-07, No Iterations 0
ExecutionTime = 0.06 s  ClockTime = 0 s

Time = 0.8

DICPCG:  Solving for T, Initial residual = 0.0075478714, Final residual = 8.4060892e-07, No Iterations 4
DICPCG:  Solving for T, Initial residual = 8.2974725e-07, Final residual = 8.2974725e-07, No Iterations 0
DICPCG:  Solving for T, Initial residual = 8.2974725e-07, Final residual = 8.2974725e-07, No Iterations 0
ExecutionTime = 0.06 s  ClockTime = 0 s

runTime.value(): 0.8
snapshotsTime: 0.8
Time = 0.85

DICPCG:  Solving for T, Initial residual = 0.0071781554, Final residual = 7.7175234e-07, No Iterations 4
DICPCG:  Solving for T, Initial residual = 7.6248723e-07, Final residual = 7.6248723e-07, No Iterations 0
DICPCG:  Solving for T, Initial residual = 7.6248723e-07, Final residual = 7.6248723e-07, No Iterations 0
ExecutionTime = 0.06 s  ClockTime = 0 s

Time = 0.9

DICPCG:  Solving for T, Initial residual = 0.0068505049, Final residual = 7.1637269e-07, No Iterations 4
DICPCG:  Solving for T, Initial residual = 7.0835604e-07, Final residual = 7.0835604e-07, No Iterations 0
DICPCG:  Solving for T, Initial residual = 7.0835604e-07, Final residual = 7.0835604e-07, No Iterations 0
ExecutionTime = 0.07 s  ClockTime = 0 s

runTime.value(): 0.9
snapshotsTime: 0.9
Time = 0.95

DICPCG:  Solving for T, Initial residual = 0.0065580833, Final residual = 6.7168485e-07, No Iterations 4
DICPCG:  Solving for T, Initial residual = 6.6465728e-07, Final residual = 6.6465728e-07, No Iterations 0
DICPCG:  Solving for T, Initial residual = 6.6465728e-07, Final residual = 6.6465728e-07, No Iterations 0
ExecutionTime = 0.07 s  ClockTime = 0 s

Time = 1

DICPCG:  Solving for T, Initial residual = 0.0062953829, Final residual = 6.3517512e-07, No Iterations 4
DICPCG:  Solving for T, Initial residual = 6.2895194e-07, Final residual = 6.2895194e-07, No Iterations 0
DICPCG:  Solving for T, Initial residual = 6.2895194e-07, Final residual = 6.2895194e-07, No Iterations 0
ExecutionTime = 0.07 s  ClockTime = 0 s

runTime.value(): 1
snapshotsTime: 1
Time = 1.05

DICPCG:  Solving for T, Initial residual = 0.0060537569, Final residual = 6.0404248e-07, No Iterations 4
DICPCG:  Solving for T, Initial residual = 5.983868e-07, Final residual = 5.983868e-07, No Iterations 0
DICPCG:  Solving for T, Initial residual = 5.983868e-07, Final residual = 5.983868e-07, No Iterations 0
ExecutionTime = 0.07 s  ClockTime = 0 s

Time = 1.1

DICPCG:  Solving for T, Initial residual = 0.0058318512, Final residual = 5.7864822e-07, No Iterations 4
DICPCG:  Solving for T, Initial residual = 5.7337562e-07, Final residual = 5.7337562e-07, No Iterations 0
DICPCG:  Solving for T, Initial residual = 5.7337562e-07, Final residual = 5.7337562e-07, No Iterations 0
ExecutionTime = 0.07 s  ClockTime = 0 s

runTime.value(): 1.1
snapshotsTime: 1.1
Time = 1.15

DICPCG:  Solving for T, Initial residual = 0.0056278678, Final residual = 5.5764212e-07, No Iterations 4
DICPCG:  Solving for T, Initial residual = 5.5283719e-07, Final residual = 5.5283719e-07, No Iterations 0
DICPCG:  Solving for T, Initial residual = 5.5283719e-07, Final residual = 5.5283719e-07, No Iterations 0
ExecutionTime = 0.08 s  ClockTime = 0 s

Time = 1.2

DICPCG:  Solving for T, Initial residual = 0.0054410853, Final residual = 5.4046367e-07, No Iterations 4
DICPCG:  Solving for T, Initial residual = 5.3605177e-07, Final residual = 5.3605177e-07, No Iterations 0
DICPCG:  Solving for T, Initial residual = 5.3605177e-07, Final residual = 5.3605177e-07, No Iterations 0
ExecutionTime = 0.08 s  ClockTime = 0 s

runTime.value(): 1.2
snapshotsTime: 1.2
Time = 1.25

DICPCG:  Solving for T, Initial residual = 0.0052694044, Final residual = 5.2691193e-07, No Iterations 4
DICPCG:  Solving for T, Initial residual = 5.2282982e-07, Final residual = 5.2282982e-07, No Iterations 0
DICPCG:  Solving for T, Initial residual = 5.2282982e-07, Final residual = 5.2282982e-07, No Iterations 0
ExecutionTime = 0.08 s  ClockTime = 0 s

Time = 1.3

DICPCG:  Solving for T, Initial residual = 0.0051110527, Final residual = 5.1554161e-07, No Iterations 4
DICPCG:  Solving for T, Initial residual = 5.117448e-07, Final residual = 5.117448e-07, No Iterations 0
DICPCG:  Solving for T, Initial residual = 5.117448e-07, Final residual = 5.117448e-07, No Iterations 0
ExecutionTime = 0.08 s  ClockTime = 0 s

runTime.value(): 1.3
snapshotsTime: 1.3
Time = 1.35

DICPCG:  Solving for T, Initial residual = 0.0049645238, Final residual = 5.0599542e-07, No Iterations 4
DICPCG:  Solving for T, Initial residual = 5.0244736e-07, Final residual = 5.0244736e-07, No Iterations 0
DICPCG:  Solving for T, Initial residual = 5.0244736e-07, Final residual = 5.0244736e-07, No Iterations 0
ExecutionTime = 0.09 s  ClockTime = 0 s

Time = 1.4

DICPCG:  Solving for T, Initial residual = 0.0048271027, Final residual = 4.9813839e-07, No Iterations 4
DICPCG:  Solving for T, Initial residual = 4.9489639e-07, Final residual = 4.9489639e-07, No Iterations 0
DICPCG:  Solving for T, Initial residual = 4.9489639e-07, Final residual = 4.9489639e-07, No Iterations 0
ExecutionTime = 0.09 s  ClockTime = 0 s

runTime.value(): 1.4
snapshotsTime: 1.4
Time = 1.45

DICPCG:  Solving for T, Initial residual = 0.0046979039, Final residual = 4.9155249e-07, No Iterations 4
DICPCG:  Solving for T, Initial residual = 4.8827658e-07, Final residual = 4.8827658e-07, No Iterations 0
DICPCG:  Solving for T, Initial residual = 4.8827658e-07, Final residual = 4.8827658e-07, No Iterations 0
ExecutionTime = 0.09 s  ClockTime = 0 s

Time = 1.5

DICPCG:  Solving for T, Initial residual = 0.004575268, Final residual = 4.8576498e-07, No Iterations 4
DICPCG:  Solving for T, Initial residual = 4.8266772e-07, Final residual = 4.8266772e-07, No Iterations 0
DICPCG:  Solving for T, Initial residual = 4.8266772e-07, Final residual = 4.8266772e-07, No Iterations 0
ExecutionTime = 0.1 s  ClockTime = 0 s

runTime.value(): 1.5
snapshotsTime: 1.5
Time = 1.55

DICPCG:  Solving for T, Initial residual = 0.0044605959, Final residual = 4.8057869e-07, No Iterations 4
DICPCG:  Solving for T, Initial residual = 4.7764377e-07, Final residual = 4.7764377e-07, No Iterations 0
DICPCG:  Solving for T, Initial residual = 4.7764377e-07, Final residual = 4.7764377e-07, No Iterations 0
ExecutionTime = 0.1 s  ClockTime = 0 s

Time = 1.6

DICPCG:  Solving for T, Initial residual = 0.0043531325, Final residual = 4.761213e-07, No Iterations 4
DICPCG:  Solving for T, Initial residual = 4.7333327e-07, Final residual = 4.7333327e-07, No Iterations 0
DICPCG:  Solving for T, Initial residual = 4.7333327e-07, Final residual = 4.7333327e-07, No Iterations 0
ExecutionTime = 0.11 s  ClockTime = 0 s

runTime.value(): 1.6
snapshotsTime: 1.6
Time = 1.65

DICPCG:  Solving for T, Initial residual = 0.0042522149, Final residual = 4.7221632e-07, No Iterations 4
DICPCG:  Solving for T, Initial residual = 4.6956221e-07, Final residual = 4.6956221e-07, No Iterations 0
DICPCG:  Solving for T, Initial residual = 4.6956221e-07, Final residual = 4.6956221e-07, No Iterations 0
ExecutionTime = 0.11 s  ClockTime = 0 s

Time = 1.7

DICPCG:  Solving for T, Initial residual = 0.0041572586, Final residual = 4.6856177e-07, No Iterations 4
DICPCG:  Solving for T, Initial residual = 4.6603148e-07, Final residual = 4.6603148e-07, No Iterations 0
DICPCG:  Solving for T, Initial residual = 4.6603148e-07, Final residual = 4.6603148e-07, No Iterations 0
ExecutionTime = 0.11 s  ClockTime = 0 s

runTime.value(): 1.7
snapshotsTime: 1.7
Time = 1.75

DICPCG:  Solving for T, Initial residual = 0.0040677464, Final residual = 4.6517124e-07, No Iterations 4
DICPCG:  Solving for T, Initial residual = 4.6275548e-07, Final residual = 4.6275548e-07, No Iterations 0
DICPCG:  Solving for T, Initial residual = 4.6275548e-07, Final residual = 4.6275548e-07, No Iterations 0
ExecutionTime = 0.11 s  ClockTime = 0 s

Time = 1.8

DICPCG:  Solving for T, Initial residual = 0.003983219, Final residual = 4.6193129e-07, No Iterations 4
DICPCG:  Solving for T, Initial residual = 4.5962215e-07, Final residual = 4.5962215e-07, No Iterations 0
DICPCG:  Solving for T, Initial residual = 4.5962215e-07, Final residual = 4.5962215e-07, No Iterations 0
ExecutionTime = 0.12 s  ClockTime = 0 s

runTime.value(): 1.8
snapshotsTime: 1.8
Time = 1.85

DICPCG:  Solving for T, Initial residual = 0.0039030845, Final residual = 4.5893858e-07, No Iterations 4
DICPCG:  Solving for T, Initial residual = 4.5674973e-07, Final residual = 4.5674973e-07, No Iterations 0
DICPCG:  Solving for T, Initial residual = 4.5674973e-07, Final residual = 4.5674973e-07, No Iterations 0
ExecutionTime = 0.12 s  ClockTime = 0 s

Time = 1.9

DICPCG:  Solving for T, Initial residual = 0.0038259337, Final residual = 4.5593294e-07, No Iterations 4
DICPCG:  Solving for T, Initial residual = 4.537993e-07, Final residual = 4.537993e-07, No Iterations 0
DICPCG:  Solving for T, Initial residual = 4.537993e-07, Final residual = 4.537993e-07, No Iterations 0
ExecutionTime = 0.12 s  ClockTime = 0 s

runTime.value(): 1.9
snapshotsTime: 1.9
Time = 1.95

DICPCG:  Solving for T, Initial residual = 0.0037519041, Final residual = 4.5291374e-07, No Iterations 4
DICPCG:  Solving for T, Initial residual = 4.5080464e-07, Final residual = 4.5080464e-07, No Iterations 0
DICPCG:  Solving for T, Initial residual = 4.5080464e-07, Final residual = 4.5080464e-07, No Iterations 0
ExecutionTime = 0.13 s  ClockTime = 0 s

Time = 2

DICPCG:  Solving for T, Initial residual = 0.0036810622, Final residual = 4.499059e-07, No Iterations 4
DICPCG:  Solving for T, Initial residual = 4.4788243e-07, Final residual = 4.4788243e-07, No Iterations 0
DICPCG:  Solving for T, Initial residual = 4.4788243e-07, Final residual = 4.4788243e-07, No Iterations 0
ExecutionTime = 0.13 s  ClockTime = 0 s

runTime.value(): 2
snapshotsTime: 2
Time = 2.05

DICPCG:  Solving for T, Initial residual = 0.0036136894, Final residual = 4.4691093e-07, No Iterations 4
DICPCG:  Solving for T, Initial residual = 4.4496833e-07, Final residual = 4.4496833e-07, No Iterations 0
DICPCG:  Solving for T, Initial residual = 4.4496833e-07, Final residual = 4.4496833e-07, No Iterations 0
ExecutionTime = 0.13 s  ClockTime = 0 s

Time = 2.1

DICPCG:  Solving for T, Initial residual = 0.0035495355, Final residual = 4.4412255e-07, No Iterations 4
DICPCG:  Solving for T, Initial residual = 4.4225561e-07, Final residual = 4.4225561e-07, No Iterations 0
DICPCG:  Solving for T, Initial residual = 4.4225561e-07, Final residual = 4.4225561e-07, No Iterations 0
ExecutionTime = 0.13 s  ClockTime = 0 s

runTime.value(): 2.1
snapshotsTime: 2.1
Time = 2.15

DICPCG:  Solving for T, Initial residual = 0.0034883735, Final residual = 4.413425e-07, No Iterations 4
DICPCG:  Solving for T, Initial residual = 4.3954719e-07, Final residual = 4.3954719e-07, No Iterations 0
DICPCG:  Solving for T, Initial residual = 4.3954719e-07, Final residual = 4.3954719e-07, No Iterations 0
ExecutionTime = 0.14 s  ClockTime = 0 s

Time = 2.2

DICPCG:  Solving for T, Initial residual = 0.0034299973, Final residual = 4.3860407e-07, No Iterations 4
DICPCG:  Solving for T, Initial residual = 4.3687651e-07, Final residual = 4.3687651e-07, No Iterations 0
DICPCG:  Solving for T, Initial residual = 4.3687651e-07, Final residual = 4.3687651e-07, No Iterations 0
ExecutionTime = 0.14 s  ClockTime = 0 s

Time = 2.25

DICPCG:  Solving for T, Initial residual = 0.0033742191, Final residual = 4.3588403e-07, No Iterations 4
DICPCG:  Solving for T, Initial residual = 4.3422069e-07, Final residual = 4.3422069e-07, No Iterations 0
DICPCG:  Solving for T, Initial residual = 4.3422069e-07, Final residual = 4.3422069e-07, No Iterations 0
ExecutionTime = 0.14 s  ClockTime = 0 s

runTime.value(): 2.25
snapshotsTime: 2.2
Time = 2.3

DICPCG:  Solving for T, Initial residual = 0.0033208676, Final residual = 4.3321704e-07, No Iterations 4
DICPCG:  Solving for T, Initial residual = 4.3161449e-07, Final residual = 4.3161449e-07, No Iterations 0
DICPCG:  Solving for T, Initial residual = 4.3161449e-07, Final residual = 4.3161449e-07, No Iterations 0
ExecutionTime = 0.14 s  ClockTime = 0 s

Time = 2.35

DICPCG:  Solving for T, Initial residual = 0.003269786, Final residual = 4.3058848e-07, No Iterations 4
DICPCG:  Solving for T, Initial residual = 4.2904359e-07, Final residual = 4.2904359e-07, No Iterations 0
DICPCG:  Solving for T, Initial residual = 4.2904359e-07, Final residual = 4.2904359e-07, No Iterations 0
ExecutionTime = 0.15 s  ClockTime = 0 s

runTime.value(): 2.35
snapshotsTime: 2.3
Time = 2.4

DICPCG:  Solving for T, Initial residual = 0.0032208308, Final residual = 4.2799379e-07, No Iterations 4
DICPCG:  Solving for T, Initial residual = 4.2650364e-07, Final residual = 4.2650364e-07, No Iterations 0
DICPCG:  Solving for T, Initial residual = 4.2650364e-07, Final residual = 4.2650364e-07, No Iterations 0
ExecutionTime = 0.15 s  ClockTime = 0 s

Time = 2.45

DICPCG:  Solving for T, Initial residual = 0.0031737406, Final residual = 4.2536848e-07, No Iterations 4
DICPCG:  Solving for T, Initial residual = 4.2394785e-07, Final residual = 4.2394785e-07, No Iterations 0
DICPCG:  Solving for T, Initial residual = 4.2394785e-07, Final residual = 4.2394785e-07, No Iterations 0
ExecutionTime = 0.15 s  ClockTime = 0 s

runTime.value(): 2.45
snapshotsTime: 2.4
Time = 2.5

DICPCG:  Solving for T, Initial residual = 0.0031278285, Final residual = 4.2266829e-07, No Iterations 4
DICPCG:  Solving for T, Initial residual = 4.2128268e-07, Final residual = 4.2128268e-07, No Iterations 0
DICPCG:  Solving for T, Initial residual = 4.2128268e-07, Final residual = 4.2128268e-07, No Iterations 0
ExecutionTime = 0.19 s  ClockTime = 0 s

Time = 2.55

DICPCG:  Solving for T, Initial residual = 0.0030832569, Final residual = 4.1997278e-07, No Iterations 4
DICPCG:  Solving for T, Initial residual = 4.1858763e-07, Final residual = 4.1858763e-07, No Iterations 0
DICPCG:  Solving for T, Initial residual = 4.1858763e-07, Final residual = 4.1858763e-07, No Iterations 0
ExecutionTime = 0.19 s  ClockTime = 0 s

runTime.value(): 2.55
snapshotsTime: 2.5
Time = 2.6

DICPCG:  Solving for T, Initial residual = 0.0030400549, Final residual = 4.1724864e-07, No Iterations 4
DICPCG:  Solving for T, Initial residual = 4.1591083e-07, Final residual = 4.1591083e-07, No Iterations 0
DICPCG:  Solving for T, Initial residual = 4.1591083e-07, Final residual = 4.1591083e-07, No Iterations 0
ExecutionTime = 0.19 s  ClockTime = 0 s

Time = 2.65

DICPCG:  Solving for T, Initial residual = 0.0029984869, Final residual = 4.1458416e-07, No Iterations 4
DICPCG:  Solving for T, Initial residual = 4.1329142e-07, Final residual = 4.1329142e-07, No Iterations 0
DICPCG:  Solving for T, Initial residual = 4.1329142e-07, Final residual = 4.1329142e-07, No Iterations 0
ExecutionTime = 0.19 s  ClockTime = 0 s

runTime.value(): 2.65
snapshotsTime: 2.6
Time = 2.7

DICPCG:  Solving for T, Initial residual = 0.002958461, Final residual = 4.1196527e-07, No Iterations 4
DICPCG:  Solving for T, Initial residual = 4.107155e-07, Final residual = 4.107155e-07, No Iterations 0
DICPCG:  Solving for T, Initial residual = 4.107155e-07, Final residual = 4.107155e-07, No Iterations 0
ExecutionTime = 0.19 s  ClockTime = 0 s

Time = 2.75

DICPCG:  Solving for T, Initial residual = 0.0029198918, Final residual = 4.0935688e-07, No Iterations 4
DICPCG:  Solving for T, Initial residual = 4.0814819e-07, Final residual = 4.0814819e-07, No Iterations 0
DICPCG:  Solving for T, Initial residual = 4.0814819e-07, Final residual = 4.0814819e-07, No Iterations 0
ExecutionTime = 0.2 s  ClockTime = 0 s

runTime.value(): 2.75
snapshotsTime: 2.7
Time = 2.8

DICPCG:  Solving for T, Initial residual = 0.0028827002, Final residual = 4.0676584e-07, No Iterations 4
DICPCG:  Solving for T, Initial residual = 4.0559646e-07, Final residual = 4.0559646e-07, No Iterations 0
DICPCG:  Solving for T, Initial residual = 4.0559646e-07, Final residual = 4.0559646e-07, No Iterations 0
ExecutionTime = 0.2 s  ClockTime = 0 s

Time = 2.85

DICPCG:  Solving for T, Initial residual = 0.0028468124, Final residual = 4.042404e-07, No Iterations 4
DICPCG:  Solving for T, Initial residual = 4.0310849e-07, Final residual = 4.0310849e-07, No Iterations 0
DICPCG:  Solving for T, Initial residual = 4.0310849e-07, Final residual = 4.0310849e-07, No Iterations 0
ExecutionTime = 0.2 s  ClockTime = 0 s

runTime.value(): 2.85
snapshotsTime: 2.8
Time = 2.9

DICPCG:  Solving for T, Initial residual = 0.0028121598, Final residual = 4.0172927e-07, No Iterations 4
DICPCG:  Solving for T, Initial residual = 4.0063325e-07, Final residual = 4.0063325e-07, No Iterations 0
DICPCG:  Solving for T, Initial residual = 4.0063325e-07, Final residual = 4.0063325e-07, No Iterations 0
ExecutionTime = 0.2 s  ClockTime = 0 s

Time = 2.95

DICPCG:  Solving for T, Initial residual = 0.0027786787, Final residual = 3.9924599e-07, No Iterations 4
DICPCG:  Solving for T, Initial residual = 3.9818432e-07, Final residual = 3.9818432e-07, No Iterations 0
DICPCG:  Solving for T, Initial residual = 3.9818432e-07, Final residual = 3.9818432e-07, No Iterations 0
ExecutionTime = 0.21 s  ClockTime = 0 s

runTime.value(): 2.95
snapshotsTime: 2.9
Time = 3

DICPCG:  Solving for T, Initial residual = 0.0027463091, Final residual = 3.9681217e-07, No Iterations 4
DICPCG:  Solving for T, Initial residual = 3.9578335e-07, Final residual = 3.9578335e-07, No Iterations 0
DICPCG:  Solving for T, Initial residual = 3.9578335e-07, Final residual = 3.9578335e-07, No Iterations 0
ExecutionTime = 0.21 s  ClockTime = 0 s

Time = 3.05

DICPCG:  Solving for T, Initial residual = 0.0027149955, Final residual = 3.9439936e-07, No Iterations 4
DICPCG:  Solving for T, Initial residual = 3.9340202e-07, Final residual = 3.9340202e-07, No Iterations 0
DICPCG:  Solving for T, Initial residual = 3.9340202e-07, Final residual = 3.9340202e-07, No Iterations 0
ExecutionTime = 0.21 s  ClockTime = 0 s

runTime.value(): 3.05
snapshotsTime: 3
Time = 3.1

DICPCG:  Solving for T, Initial residual = 0.0026846856, Final residual = 3.9201516e-07, No Iterations 4
DICPCG:  Solving for T, Initial residual = 3.91048e-07, Final residual = 3.91048e-07, No Iterations 0
DICPCG:  Solving for T, Initial residual = 3.91048e-07, Final residual = 3.91048e-07, No Iterations 0
ExecutionTime = 0.21 s  ClockTime = 0 s

Time = 3.15

DICPCG:  Solving for T, Initial residual = 0.0026553306, Final residual = 3.8965718e-07, No Iterations 4
DICPCG:  Solving for T, Initial residual = 3.8871898e-07, Final residual = 3.8871898e-07, No Iterations 0
DICPCG:  Solving for T, Initial residual = 3.8871898e-07, Final residual = 3.8871898e-07, No Iterations 0
ExecutionTime = 0.21 s  ClockTime = 0 s

runTime.value(): 3.15
snapshotsTime: 3.1
Time = 3.2

DICPCG:  Solving for T, Initial residual = 0.0026268846, Final residual = 3.8734664e-07, No Iterations 4
DICPCG:  Solving for T, Initial residual = 3.8643617e-07, Final residual = 3.8643617e-07, No Iterations 0
DICPCG:  Solving for T, Initial residual = 3.8643617e-07, Final residual = 3.8643617e-07, No Iterations 0
ExecutionTime = 0.22 s  ClockTime = 0 s

Time = 3.25

DICPCG:  Solving for T, Initial residual = 0.0025988702, Final residual = 3.8503096e-07, No Iterations 4
DICPCG:  Solving for T, Initial residual = 3.841821e-07, Final residual = 3.841821e-07, No Iterations 0
DICPCG:  Solving for T, Initial residual = 3.841821e-07, Final residual = 3.841821e-07, No Iterations 0
ExecutionTime = 0.22 s  ClockTime = 0 s

runTime.value(): 3.25
snapshotsTime: 3.2
Time = 3.3

DICPCG:  Solving for T, Initial residual = 0.0025715439, Final residual = 3.8273395e-07, No Iterations 4
DICPCG:  Solving for T, Initial residual = 3.8185311e-07, Final residual = 3.8185311e-07, No Iterations 0
DICPCG:  Solving for T, Initial residual = 3.8185311e-07, Final residual = 3.8185311e-07, No Iterations 0
ExecutionTime = 0.22 s  ClockTime = 0 s

Time = 3.35

DICPCG:  Solving for T, Initial residual = 0.0025446446, Final residual = 3.8041847e-07, No Iterations 4
DICPCG:  Solving for T, Initial residual = 3.7956335e-07, Final residual = 3.7956335e-07, No Iterations 0
DICPCG:  Solving for T, Initial residual = 3.7956335e-07, Final residual = 3.7956335e-07, No Iterations 0
ExecutionTime = 0.22 s  ClockTime = 0 s

runTime.value(): 3.35
snapshotsTime: 3.3
Time = 3.4

DICPCG:  Solving for T, Initial residual = 0.0025185315, Final residual = 3.7815206e-07, No Iterations 4
DICPCG:  Solving for T, Initial residual = 3.7732162e-07, Final residual = 3.7732162e-07, No Iterations 0
DICPCG:  Solving for T, Initial residual = 3.7732162e-07, Final residual = 3.7732162e-07, No Iterations 0
ExecutionTime = 0.23 s  ClockTime = 0 s

Time = 3.45

DICPCG:  Solving for T, Initial residual = 0.0024931694, Final residual = 3.7592791e-07, No Iterations 4
DICPCG:  Solving for T, Initial residual = 3.7512118e-07, Final residual = 3.7512118e-07, No Iterations 0
DICPCG:  Solving for T, Initial residual = 3.7512118e-07, Final residual = 3.7512118e-07, No Iterations 0
ExecutionTime = 0.23 s  ClockTime = 0 s

runTime.value(): 3.45
snapshotsTime: 3.4
Time = 3.5

DICPCG:  Solving for T, Initial residual = 0.002468525, Final residual = 3.7375101e-07, No Iterations 4
DICPCG:  Solving for T, Initial residual = 3.7296706e-07, Final residual = 3.7296706e-07, No Iterations 0
DICPCG:  Solving for T, Initial residual = 3.7296706e-07, Final residual = 3.7296706e-07, No Iterations 0
ExecutionTime = 0.23 s  ClockTime = 0 s

Time = 3.55

DICPCG:  Solving for T, Initial residual = 0.002444567, Final residual = 3.7161216e-07, No Iterations 4
DICPCG:  Solving for T, Initial residual = 3.7085012e-07, Final residual = 3.7085012e-07, No Iterations 0
DICPCG:  Solving for T, Initial residual = 3.7085012e-07, Final residual = 3.7085012e-07, No Iterations 0
ExecutionTime = 0.23 s  ClockTime = 0 s

runTime.value(): 3.55
snapshotsTime: 3.5
Time = 3.6

DICPCG:  Solving for T, Initial residual = 0.0024212656, Final residual = 3.6950794e-07, No Iterations 4
DICPCG:  Solving for T, Initial residual = 3.6876698e-07, Final residual = 3.6876698e-07, No Iterations 0
DICPCG:  Solving for T, Initial residual = 3.6876698e-07, Final residual = 3.6876698e-07, No Iterations 0
ExecutionTime = 0.24 s  ClockTime = 0 s

Time = 3.65

DICPCG:  Solving for T, Initial residual = 0.002398593, Final residual = 3.6743664e-07, No Iterations 4
DICPCG:  Solving for T, Initial residual = 3.6671598e-07, Final residual = 3.6671598e-07, No Iterations 0
DICPCG:  Solving for T, Initial residual = 3.6671598e-07, Final residual = 3.6671598e-07, No Iterations 0
ExecutionTime = 0.24 s  ClockTime = 0 s

runTime.value(): 3.65
snapshotsTime: 3.6
Time = 3.7

DICPCG:  Solving for T, Initial residual = 0.0023765226, Final residual = 3.6539148e-07, No Iterations 4
DICPCG:  Solving for T, Initial residual = 3.6469039e-07, Final residual = 3.6469039e-07, No Iterations 0
DICPCG:  Solving for T, Initial residual = 3.6469039e-07, Final residual = 3.6469039e-07, No Iterations 0
ExecutionTime = 0.24 s  ClockTime = 0 s

Time = 3.75

DICPCG:  Solving for T, Initial residual = 0.0023550292, Final residual = 3.6337436e-07, No Iterations 4
DICPCG:  Solving for T, Initial residual = 3.6269213e-07, Final residual = 3.6269213e-07, No Iterations 0
DICPCG:  Solving for T, Initial residual = 3.6269213e-07, Final residual = 3.6269213e-07, No Iterations 0
ExecutionTime = 0.24 s  ClockTime = 0 s

runTime.value(): 3.75
snapshotsTime: 3.7
Time = 3.8

DICPCG:  Solving for T, Initial residual = 0.0023340891, Final residual = 3.6138473e-07, No Iterations 4
DICPCG:  Solving for T, Initial residual = 3.6072069e-07, Final residual = 3.6072069e-07, No Iterations 0
DICPCG:  Solving for T, Initial residual = 3.6072069e-07, Final residual = 3.6072069e-07, No Iterations 0
ExecutionTime = 0.24 s  ClockTime = 0 s

Time = 3.85

DICPCG:  Solving for T, Initial residual = 0.0023136796, Final residual = 3.5942562e-07, No Iterations 4
DICPCG:  Solving for T, Initial residual = 3.5877912e-07, Final residual = 3.5877912e-07, No Iterations 0
DICPCG:  Solving for T, Initial residual = 3.5877912e-07, Final residual = 3.5877912e-07, No Iterations 0
ExecutionTime = 0.25 s  ClockTime = 0 s

runTime.value(): 3.85
snapshotsTime: 3.8
Time = 3.9

DICPCG:  Solving for T, Initial residual = 0.0022937795, Final residual = 3.5749691e-07, No Iterations 4
DICPCG:  Solving for T, Initial residual = 3.5686733e-07, Final residual = 3.5686733e-07, No Iterations 0
DICPCG:  Solving for T, Initial residual = 3.5686733e-07, Final residual = 3.5686733e-07, No Iterations 0
ExecutionTime = 0.25 s  ClockTime = 0 s

Time = 3.95

DICPCG:  Solving for T, Initial residual = 0.0022743682, Final residual = 3.5560072e-07, No Iterations 4
DICPCG:  Solving for T, Initial residual = 3.5498746e-07, Final residual = 3.5498746e-07, No Iterations 0
DICPCG:  Solving for T, Initial residual = 3.5498746e-07, Final residual = 3.5498746e-07, No Iterations 0
ExecutionTime = 0.25 s  ClockTime = 0 s

runTime.value(): 3.95
snapshotsTime: 3.9
Time = 4

DICPCG:  Solving for T, Initial residual = 0.0022554266, Final residual = 3.5373508e-07, No Iterations 4
DICPCG:  Solving for T, Initial residual = 3.5313756e-07, Final residual = 3.5313756e-07, No Iterations 0
DICPCG:  Solving for T, Initial residual = 3.5313756e-07, Final residual = 3.5313756e-07, No Iterations 0
ExecutionTime = 0.25 s  ClockTime = 0 s

Time = 4.05

DICPCG:  Solving for T, Initial residual = 0.0022369362, Final residual = 3.5189704e-07, No Iterations 4
DICPCG:  Solving for T, Initial residual = 3.5131473e-07, Final residual = 3.5131473e-07, No Iterations 0
DICPCG:  Solving for T, Initial residual = 3.5131473e-07, Final residual = 3.5131473e-07, No Iterations 0
ExecutionTime = 0.25 s  ClockTime = 0 s

runTime.value(): 4.05
snapshotsTime: 4
Time = 4.1

DICPCG:  Solving for T, Initial residual = 0.0022188796, Final residual = 3.5008778e-07, No Iterations 4
DICPCG:  Solving for T, Initial residual = 3.4952015e-07, Final residual = 3.4952015e-07, No Iterations 0
DICPCG:  Solving for T, Initial residual = 3.4952015e-07, Final residual = 3.4952015e-07, No Iterations 0
ExecutionTime = 0.26 s  ClockTime = 0 s

Time = 4.15

DICPCG:  Solving for T, Initial residual = 0.0022012401, Final residual = 3.4830389e-07, No Iterations 4
DICPCG:  Solving for T, Initial residual = 3.4775046e-07, Final residual = 3.4775046e-07, No Iterations 0
DICPCG:  Solving for T, Initial residual = 3.4775046e-07, Final residual = 3.4775046e-07, No Iterations 0
ExecutionTime = 0.26 s  ClockTime = 0 s

runTime.value(): 4.15
snapshotsTime: 4.1
Time = 4.2

DICPCG:  Solving for T, Initial residual = 0.0021839583, Final residual = 3.465359e-07, No Iterations 4
DICPCG:  Solving for T, Initial residual = 3.4600311e-07, Final residual = 3.4600311e-07, No Iterations 0
DICPCG:  Solving for T, Initial residual = 3.4600311e-07, Final residual = 3.4600311e-07, No Iterations 0
ExecutionTime = 0.26 s  ClockTime = 0 s

Time = 4.25

DICPCG:  Solving for T, Initial residual = 0.0021668182, Final residual = 3.4475281e-07, No Iterations 4
DICPCG:  Solving for T, Initial residual = 3.4424794e-07, Final residual = 3.4424794e-07, No Iterations 0
DICPCG:  Solving for T, Initial residual = 3.4424794e-07, Final residual = 3.4424794e-07, No Iterations 0
ExecutionTime = 0.26 s  ClockTime = 0 s

runTime.value(): 4.25
snapshotsTime: 4.2
Time = 4.3

DICPCG:  Solving for T, Initial residual = 0.0021499613, Final residual = 3.4297174e-07, No Iterations 4
DICPCG:  Solving for T, Initial residual = 3.4244981e-07, Final residual = 3.4244981e-07, No Iterations 0
DICPCG:  Solving for T, Initial residual = 3.4244981e-07, Final residual = 3.4244981e-07, No Iterations 0
ExecutionTime = 0.26 s  ClockTime = 0 s

Time = 4.35

DICPCG:  Solving for T, Initial residual = 0.0021332874, Final residual = 3.4118251e-07, No Iterations 4
DICPCG:  Solving for T, Initial residual = 3.4067362e-07, Final residual = 3.4067362e-07, No Iterations 0
DICPCG:  Solving for T, Initial residual = 3.4067362e-07, Final residual = 3.4067362e-07, No Iterations 0
ExecutionTime = 0.27 s  ClockTime = 0 s

runTime.value(): 4.35
snapshotsTime: 4.3
Time = 4.4

DICPCG:  Solving for T, Initial residual = 0.0021169746, Final residual = 3.3941684e-07, No Iterations 4
DICPCG:  Solving for T, Initial residual = 3.3892057e-07, Final residual = 3.3892057e-07, No Iterations 0
DICPCG:  Solving for T, Initial residual = 3.3892057e-07, Final residual = 3.3892057e-07, No Iterations 0
ExecutionTime = 0.27 s  ClockTime = 0 s

Time = 4.45

DICPCG:  Solving for T, Initial residual = 0.0021010099, Final residual = 3.3767035e-07, No Iterations 4
DICPCG:  Solving for T, Initial residual = 3.3718631e-07, Final residual = 3.3718631e-07, No Iterations 0
DICPCG:  Solving for T, Initial residual = 3.3718631e-07, Final residual = 3.3718631e-07, No Iterations 0
ExecutionTime = 0.27 s  ClockTime = 0 s

runTime.value(): 4.45
snapshotsTime: 4.4
Time = 4.5

DICPCG:  Solving for T, Initial residual = 0.0020853808, Final residual = 3.3594241e-07, No Iterations 4
DICPCG:  Solving for T, Initial residual = 3.3547022e-07, Final residual = 3.3547022e-07, No Iterations 0
DICPCG:  Solving for T, Initial residual = 3.3547022e-07, Final residual = 3.3547022e-07, No Iterations 0
ExecutionTime = 0.27 s  ClockTime = 0 s

Time = 4.55

DICPCG:  Solving for T, Initial residual = 0.0020700752, Final residual = 3.3423762e-07, No Iterations 4
DICPCG:  Solving for T, Initial residual = 3.3377691e-07, Final residual = 3.3377691e-07, No Iterations 0
DICPCG:  Solving for T, Initial residual = 3.3377691e-07, Final residual = 3.3377691e-07, No Iterations 0
ExecutionTime = 0.27 s  ClockTime = 0 s

runTime.value(): 4.55
snapshotsTime: 4.5
Time = 4.6

DICPCG:  Solving for T, Initial residual = 0.0020550818, Final residual = 3.3255665e-07, No Iterations 4
DICPCG:  Solving for T, Initial residual = 3.3210705e-07, Final residual = 3.3210705e-07, No Iterations 0
DICPCG:  Solving for T, Initial residual = 3.3210705e-07, Final residual = 3.3210705e-07, No Iterations 0
ExecutionTime = 0.28 s  ClockTime = 0 s

Time = 4.65

DICPCG:  Solving for T, Initial residual = 0.0020403897, Final residual = 3.3090179e-07, No Iterations 4
DICPCG:  Solving for T, Initial residual = 3.3046296e-07, Final residual = 3.3046296e-07, No Iterations 0
DICPCG:  Solving for T, Initial residual = 3.3046296e-07, Final residual = 3.3046296e-07, No Iterations 0
ExecutionTime = 0.28 s  ClockTime = 0 s

runTime.value(): 4.65
snapshotsTime: 4.6
Time = 4.7

DICPCG:  Solving for T, Initial residual = 0.0020259883, Final residual = 3.2927603e-07, No Iterations 4
DICPCG:  Solving for T, Initial residual = 3.2884763e-07, Final residual = 3.2884763e-07, No Iterations 0
DICPCG:  Solving for T, Initial residual = 3.2884763e-07, Final residual = 3.2884763e-07, No Iterations 0
ExecutionTime = 0.28 s  ClockTime = 0 s

Time = 4.75

DICPCG:  Solving for T, Initial residual = 0.0020118676, Final residual = 3.2766826e-07, No Iterations 4
DICPCG:  Solving for T, Initial residual = 3.2724998e-07, Final residual = 3.2724998e-07, No Iterations 0
DICPCG:  Solving for T, Initial residual = 3.2724998e-07, Final residual = 3.2724998e-07, No Iterations 0
ExecutionTime = 0.28 s  ClockTime = 0 s

runTime.value(): 4.75
snapshotsTime: 4.7
Time = 4.8

DICPCG:  Solving for T, Initial residual = 0.0019980181, Final residual = 3.2608626e-07, No Iterations 4
DICPCG:  Solving for T, Initial residual = 3.2567778e-07, Final residual = 3.2567778e-07, No Iterations 0
DICPCG:  Solving for T, Initial residual = 3.2567778e-07, Final residual = 3.2567778e-07, No Iterations 0
ExecutionTime = 0.28 s  ClockTime = 0 s

Time = 4.85

DICPCG:  Solving for T, Initial residual = 0.0019844305, Final residual = 3.2452777e-07, No Iterations 4
DICPCG:  Solving for T, Initial residual = 3.241288e-07, Final residual = 3.241288e-07, No Iterations 0
DICPCG:  Solving for T, Initial residual = 3.241288e-07, Final residual = 3.241288e-07, No Iterations 0
ExecutionTime = 0.29 s  ClockTime = 0 s

runTime.value(): 4.85
snapshotsTime: 4.8
Time = 4.9

DICPCG:  Solving for T, Initial residual = 0.0019710961, Final residual = 3.2298786e-07, No Iterations 4
DICPCG:  Solving for T, Initial residual = 3.2259812e-07, Final residual = 3.2259812e-07, No Iterations 0
DICPCG:  Solving for T, Initial residual = 3.2259812e-07, Final residual = 3.2259812e-07, No Iterations 0
ExecutionTime = 0.29 s  ClockTime = 0 s

Time = 4.95

DICPCG:  Solving for T, Initial residual = 0.0019580063, Final residual = 3.2146448e-07, No Iterations 4
DICPCG:  Solving for T, Initial residual = 3.2108369e-07, Final residual = 3.2108369e-07, No Iterations 0
DICPCG:  Solving for T, Initial residual = 3.2108369e-07, Final residual = 3.2108369e-07, No Iterations 0
ExecutionTime = 0.29 s  ClockTime = 0 s

runTime.value(): 4.95
snapshotsTime: 4.9
Time = 5

DICPCG:  Solving for T, Initial residual = 0.0019451532, Final residual = 3.1995468e-07, No Iterations 4
DICPCG:  Solving for T, Initial residual = 3.1958259e-07, Final residual = 3.1958259e-07, No Iterations 0
DICPCG:  Solving for T, Initial residual = 3.1958259e-07, Final residual = 3.1958259e-07, No Iterations 0
ExecutionTime = 0.33 s  ClockTime = 0 s

Time = 5.05

DICPCG:  Solving for T, Initial residual = 0.0019325288, Final residual = 3.1846402e-07, No Iterations 4
DICPCG:  Solving for T, Initial residual = 3.1810038e-07, Final residual = 3.1810038e-07, No Iterations 0
DICPCG:  Solving for T, Initial residual = 3.1810038e-07, Final residual = 3.1810038e-07, No Iterations 0
ExecutionTime = 0.33 s  ClockTime = 0 s

runTime.value(): 5.05
snapshotsTime: 5
Time = 5.1

DICPCG:  Solving for T, Initial residual = 0.0019201258, Final residual = 3.1699275e-07, No Iterations 4
DICPCG:  Solving for T, Initial residual = 3.1663732e-07, Final residual = 3.1663732e-07, No Iterations 0
DICPCG:  Solving for T, Initial residual = 3.1663732e-07, Final residual = 3.1663732e-07, No Iterations 0
ExecutionTime = 0.33 s  ClockTime = 0 s

Time = 5.15

DICPCG:  Solving for T, Initial residual = 0.001907937, Final residual = 3.1553558e-07, No Iterations 4
DICPCG:  Solving for T, Initial residual = 3.1518811e-07, Final residual = 3.1518811e-07, No Iterations 0
DICPCG:  Solving for T, Initial residual = 3.1518811e-07, Final residual = 3.1518811e-07, No Iterations 0
ExecutionTime = 0.33 s  ClockTime = 0 s

runTime.value(): 5.15
snapshotsTime: 5.1
Time = 5.2

DICPCG:  Solving for T, Initial residual = 0.0018959555, Final residual = 3.1409329e-07, No Iterations 4
DICPCG:  Solving for T, Initial residual = 3.1375357e-07, Final residual = 3.1375357e-07, No Iterations 0
DICPCG:  Solving for T, Initial residual = 3.1375357e-07, Final residual = 3.1375357e-07, No Iterations 0
ExecutionTime = 0.33 s  ClockTime = 0 s

Time = 5.25

DICPCG:  Solving for T, Initial residual = 0.0018841748, Final residual = 3.1266597e-07, No Iterations 4
DICPCG:  Solving for T, Initial residual = 3.1233379e-07, Final residual = 3.1233379e-07, No Iterations 0
DICPCG:  Solving for T, Initial residual = 3.1233379e-07, Final residual = 3.1233379e-07, No Iterations 0
ExecutionTime = 0.34 s  ClockTime = 0 s

runTime.value(): 5.25
snapshotsTime: 5.2
Time = 5.3

DICPCG:  Solving for T, Initial residual = 0.0018725884, Final residual = 3.1125093e-07, No Iterations 4
DICPCG:  Solving for T, Initial residual = 3.1092607e-07, Final residual = 3.1092607e-07, No Iterations 0
DICPCG:  Solving for T, Initial residual = 3.1092607e-07, Final residual = 3.1092607e-07, No Iterations 0
ExecutionTime = 0.34 s  ClockTime = 0 s

Time = 5.35

DICPCG:  Solving for T, Initial residual = 0.0018611902, Final residual = 3.0985233e-07, No Iterations 4
DICPCG:  Solving for T, Initial residual = 3.0953459e-07, Final residual = 3.0953459e-07, No Iterations 0
DICPCG:  Solving for T, Initial residual = 3.0953459e-07, Final residual = 3.0953459e-07, No Iterations 0
ExecutionTime = 0.34 s  ClockTime = 0 s

runTime.value(): 5.35
snapshotsTime: 5.3
Time = 5.4

DICPCG:  Solving for T, Initial residual = 0.0018499745, Final residual = 3.0847204e-07, No Iterations 4
DICPCG:  Solving for T, Initial residual = 3.0816122e-07, Final residual = 3.0816122e-07, No Iterations 0
DICPCG:  Solving for T, Initial residual = 3.0816122e-07, Final residual = 3.0816122e-07, No Iterations 0
ExecutionTime = 0.34 s  ClockTime = 0 s

Time = 5.45

DICPCG:  Solving for T, Initial residual = 0.0018389355, Final residual = 3.0710605e-07, No Iterations 4
DICPCG:  Solving for T, Initial residual = 3.0680196e-07, Final residual = 3.0680196e-07, No Iterations 0
DICPCG:  Solving for T, Initial residual = 3.0680196e-07, Final residual = 3.0680196e-07, No Iterations 0
ExecutionTime = 0.34 s  ClockTime = 0 s

runTime.value(): 5.45
snapshotsTime: 5.4
Time = 5.5

DICPCG:  Solving for T, Initial residual = 0.001828057, Final residual = 3.0575028e-07, No Iterations 4
DICPCG:  Solving for T, Initial residual = 3.0545455e-07, Final residual = 3.0545455e-07, No Iterations 0
DICPCG:  Solving for T, Initial residual = 3.0545455e-07, Final residual = 3.0545455e-07, No Iterations 0
ExecutionTime = 0.35 s  ClockTime = 0 s

Time = 5.55

DICPCG:  Solving for T, Initial residual = 0.0018171885, Final residual = 3.0438357e-07, No Iterations 4
DICPCG:  Solving for T, Initial residual = 3.0411768e-07, Final residual = 3.0411768e-07, No Iterations 0
DICPCG:  Solving for T, Initial residual = 3.0411768e-07, Final residual = 3.0411768e-07, No Iterations 0
ExecutionTime = 0.35 s  ClockTime = 0 s

runTime.value(): 5.55
snapshotsTime: 5.5
Time = 5.6

DICPCG:  Solving for T, Initial residual = 0.0018064719, Final residual = 3.0302881e-07, No Iterations 4
DICPCG:  Solving for T, Initial residual = 3.027435e-07, Final residual = 3.027435e-07, No Iterations 0
DICPCG:  Solving for T, Initial residual = 3.027435e-07, Final residual = 3.027435e-07, No Iterations 0
ExecutionTime = 0.36 s  ClockTime = 0 s

Time = 5.65

DICPCG:  Solving for T, Initial residual = 0.0017957648, Final residual = 3.0166123e-07, No Iterations 4
DICPCG:  Solving for T, Initial residual = 3.0138221e-07, Final residual = 3.0138221e-07, No Iterations 0
DICPCG:  Solving for T, Initial residual = 3.0138221e-07, Final residual = 3.0138221e-07, No Iterations 0
ExecutionTime = 0.36 s  ClockTime = 0 s

runTime.value(): 5.65
snapshotsTime: 5.6
Time = 5.7

DICPCG:  Solving for T, Initial residual = 0.001785217, Final residual = 3.0030923e-07, No Iterations 4
DICPCG:  Solving for T, Initial residual = 3.0003634e-07, Final residual = 3.0003634e-07, No Iterations 0
DICPCG:  Solving for T, Initial residual = 3.0003634e-07, Final residual = 3.0003634e-07, No Iterations 0
ExecutionTime = 0.36 s  ClockTime = 0 s

Time = 5.75

DICPCG:  Solving for T, Initial residual = 0.0017748238, Final residual = 2.9896965e-07, No Iterations 4
DICPCG:  Solving for T, Initial residual = 2.9870273e-07, Final residual = 2.9870273e-07, No Iterations 0
DICPCG:  Solving for T, Initial residual = 2.9870273e-07, Final residual = 2.9870273e-07, No Iterations 0
ExecutionTime = 0.36 s  ClockTime = 0 s

runTime.value(): 5.75
snapshotsTime: 5.7
Time = 5.8

DICPCG:  Solving for T, Initial residual = 0.0017645806, Final residual = 2.9764884e-07, No Iterations 4
DICPCG:  Solving for T, Initial residual = 2.9738773e-07, Final residual = 2.9738773e-07, No Iterations 0
DICPCG:  Solving for T, Initial residual = 2.9738773e-07, Final residual = 2.9738773e-07, No Iterations 0
ExecutionTime = 0.36 s  ClockTime = 0 s

Time = 5.85

DICPCG:  Solving for T, Initial residual = 0.0017544831, Final residual = 2.9634361e-07, No Iterations 4
DICPCG:  Solving for T, Initial residual = 2.9608814e-07, Final residual = 2.9608814e-07, No Iterations 0
DICPCG:  Solving for T, Initial residual = 2.9608814e-07, Final residual = 2.9608814e-07, No Iterations 0
ExecutionTime = 0.36 s  ClockTime = 0 s

runTime.value(): 5.85
snapshotsTime: 5.8
Time = 5.9

DICPCG:  Solving for T, Initial residual = 0.0017445272, Final residual = 2.9504954e-07, No Iterations 4
DICPCG:  Solving for T, Initial residual = 2.9479957e-07, Final residual = 2.9479957e-07, No Iterations 0
DICPCG:  Solving for T, Initial residual = 2.9479957e-07, Final residual = 2.9479957e-07, No Iterations 0
ExecutionTime = 0.36 s  ClockTime = 0 s

Time = 5.95

DICPCG:  Solving for T, Initial residual = 0.0017347087, Final residual = 2.9376572e-07, No Iterations 4
DICPCG:  Solving for T, Initial residual = 2.9352112e-07, Final residual = 2.9352112e-07, No Iterations 0
DICPCG:  Solving for T, Initial residual = 2.9352112e-07, Final residual = 2.9352112e-07, No Iterations 0
ExecutionTime = 0.37 s  ClockTime = 0 s

runTime.value(): 5.95
snapshotsTime: 5.9
Time = 6

DICPCG:  Solving for T, Initial residual = 0.0017250237, Final residual = 2.9249334e-07, No Iterations 4
DICPCG:  Solving for T, Initial residual = 2.9225397e-07, Final residual = 2.9225397e-07, No Iterations 0
DICPCG:  Solving for T, Initial residual = 2.9225397e-07, Final residual = 2.9225397e-07, No Iterations 0
ExecutionTime = 0.37 s  ClockTime = 0 s

Time = 6.05

DICPCG:  Solving for T, Initial residual = 0.0017154685, Final residual = 2.912315e-07, No Iterations 4
DICPCG:  Solving for T, Initial residual = 2.9099723e-07, Final residual = 2.9099723e-07, No Iterations 0
DICPCG:  Solving for T, Initial residual = 2.9099723e-07, Final residual = 2.9099723e-07, No Iterations 0
ExecutionTime = 0.38 s  ClockTime = 0 s

runTime.value(): 6.05
snapshotsTime: 6
Time = 6.1

DICPCG:  Solving for T, Initial residual = 0.0017060396, Final residual = 2.8997834e-07, No Iterations 4
DICPCG:  Solving for T, Initial residual = 2.8974903e-07, Final residual = 2.8974903e-07, No Iterations 0
DICPCG:  Solving for T, Initial residual = 2.8974903e-07, Final residual = 2.8974903e-07, No Iterations 0
ExecutionTime = 0.38 s  ClockTime = 0 s

Time = 6.15

DICPCG:  Solving for T, Initial residual = 0.0016967332, Final residual = 2.8873871e-07, No Iterations 4
DICPCG:  Solving for T, Initial residual = 2.8851424e-07, Final residual = 2.8851424e-07, No Iterations 0
DICPCG:  Solving for T, Initial residual = 2.8851424e-07, Final residual = 2.8851424e-07, No Iterations 0
ExecutionTime = 0.38 s  ClockTime = 0 s

runTime.value(): 6.15
snapshotsTime: 6.1
Time = 6.2

DICPCG:  Solving for T, Initial residual = 0.0016875462, Final residual = 2.8752119e-07, No Iterations 4
DICPCG:  Solving for T, Initial residual = 2.8730143e-07, Final residual = 2.8730143e-07, No Iterations 0
DICPCG:  Solving for T, Initial residual = 2.8730143e-07, Final residual = 2.8730143e-07, No Iterations 0
ExecutionTime = 0.38 s  ClockTime = 0 s

Time = 6.25

DICPCG:  Solving for T, Initial residual = 0.0016784752, Final residual = 2.8631159e-07, No Iterations 4
DICPCG:  Solving for T, Initial residual = 2.8609642e-07, Final residual = 2.8609642e-07, No Iterations 0
DICPCG:  Solving for T, Initial residual = 2.8609642e-07, Final residual = 2.8609642e-07, No Iterations 0
ExecutionTime = 0.39 s  ClockTime = 0 s

runTime.value(): 6.25
snapshotsTime: 6.2
Time = 6.3

DICPCG:  Solving for T, Initial residual = 0.0016695171, Final residual = 2.8511134e-07, No Iterations 4
DICPCG:  Solving for T, Initial residual = 2.8490065e-07, Final residual = 2.8490065e-07, No Iterations 0
DICPCG:  Solving for T, Initial residual = 2.8490065e-07, Final residual = 2.8490065e-07, No Iterations 0
ExecutionTime = 0.39 s  ClockTime = 0 s

Time = 6.35

DICPCG:  Solving for T, Initial residual = 0.0016606688, Final residual = 2.8391849e-07, No Iterations 4
DICPCG:  Solving for T, Initial residual = 2.8371218e-07, Final residual = 2.8371218e-07, No Iterations 0
DICPCG:  Solving for T, Initial residual = 2.8371218e-07, Final residual = 2.8371218e-07, No Iterations 0
ExecutionTime = 0.39 s  ClockTime = 0 s

runTime.value(): 6.35
snapshotsTime: 6.3
Time = 6.4

DICPCG:  Solving for T, Initial residual = 0.0016519275, Final residual = 2.8273277e-07, No Iterations 4
DICPCG:  Solving for T, Initial residual = 2.8253072e-07, Final residual = 2.8253072e-07, No Iterations 0
DICPCG:  Solving for T, Initial residual = 2.8253072e-07, Final residual = 2.8253072e-07, No Iterations 0
ExecutionTime = 0.39 s  ClockTime = 0 s

Time = 6.45

DICPCG:  Solving for T, Initial residual = 0.0016432902, Final residual = 2.815557e-07, No Iterations 4
DICPCG:  Solving for T, Initial residual = 2.8135781e-07, Final residual = 2.8135781e-07, No Iterations 0
DICPCG:  Solving for T, Initial residual = 2.8135781e-07, Final residual = 2.8135781e-07, No Iterations 0
ExecutionTime = 0.39 s  ClockTime = 0 s

runTime.value(): 6.45
snapshotsTime: 6.4
Time = 6.5

DICPCG:  Solving for T, Initial residual = 0.0016347543, Final residual = 2.8038775e-07, No Iterations 4
DICPCG:  Solving for T, Initial residual = 2.8019393e-07, Final residual = 2.8019393e-07, No Iterations 0
DICPCG:  Solving for T, Initial residual = 2.8019393e-07, Final residual = 2.8019393e-07, No Iterations 0
ExecutionTime = 0.4 s  ClockTime = 0 s

Time = 6.55

DICPCG:  Solving for T, Initial residual = 0.0016263171, Final residual = 2.7922698e-07, No Iterations 4
DICPCG:  Solving for T, Initial residual = 2.7903713e-07, Final residual = 2.7903713e-07, No Iterations 0
DICPCG:  Solving for T, Initial residual = 2.7903713e-07, Final residual = 2.7903713e-07, No Iterations 0
ExecutionTime = 0.4 s  ClockTime = 0 s

runTime.value(): 6.55
snapshotsTime: 6.5
Time = 6.6

DICPCG:  Solving for T, Initial residual = 0.0016179761, Final residual = 2.7807465e-07, No Iterations 4
DICPCG:  Solving for T, Initial residual = 2.7788866e-07, Final residual = 2.7788866e-07, No Iterations 0
DICPCG:  Solving for T, Initial residual = 2.7788866e-07, Final residual = 2.7788866e-07, No Iterations 0
ExecutionTime = 0.4 s  ClockTime = 0 s

Time = 6.65

DICPCG:  Solving for T, Initial residual = 0.0016097288, Final residual = 2.7693429e-07, No Iterations 4
DICPCG:  Solving for T, Initial residual = 2.7675208e-07, Final residual = 2.7675208e-07, No Iterations 0
DICPCG:  Solving for T, Initial residual = 2.7675208e-07, Final residual = 2.7675208e-07, No Iterations 0
ExecutionTime = 0.4 s  ClockTime = 0 s

runTime.value(): 6.65
snapshotsTime: 6.6
Time = 6.7

DICPCG:  Solving for T, Initial residual = 0.0016015728, Final residual = 2.7580097e-07, No Iterations 4
DICPCG:  Solving for T, Initial residual = 2.7562245e-07, Final residual = 2.7562245e-07, No Iterations 0
DICPCG:  Solving for T, Initial residual = 2.7562245e-07, Final residual = 2.7562245e-07, No Iterations 0
ExecutionTime = 0.41 s  ClockTime = 0 s

Time = 6.75

DICPCG:  Solving for T, Initial residual = 0.0015935058, Final residual = 2.7467747e-07, No Iterations 4
DICPCG:  Solving for T, Initial residual = 2.7450255e-07, Final residual = 2.7450255e-07, No Iterations 0
DICPCG:  Solving for T, Initial residual = 2.7450255e-07, Final residual = 2.7450255e-07, No Iterations 0
ExecutionTime = 0.41 s  ClockTime = 0 s

runTime.value(): 6.75
snapshotsTime: 6.7
Time = 6.8

DICPCG:  Solving for T, Initial residual = 0.0015855256, Final residual = 2.735606e-07, No Iterations 4
DICPCG:  Solving for T, Initial residual = 2.7338919e-07, Final residual = 2.7338919e-07, No Iterations 0
DICPCG:  Solving for T, Initial residual = 2.7338919e-07, Final residual = 2.7338919e-07, No Iterations 0
ExecutionTime = 0.41 s  ClockTime = 0 s

Time = 6.85

DICPCG:  Solving for T, Initial residual = 0.00157763, Final residual = 2.724515e-07, No Iterations 4
DICPCG:  Solving for T, Initial residual = 2.7228353e-07, Final residual = 2.7228353e-07, No Iterations 0
DICPCG:  Solving for T, Initial residual = 2.7228353e-07, Final residual = 2.7228353e-07, No Iterations 0
ExecutionTime = 0.41 s  ClockTime = 0 s

runTime.value(): 6.85
snapshotsTime: 6.8
Time = 6.9

DICPCG:  Solving for T, Initial residual = 0.001569817, Final residual = 2.7134989e-07, No Iterations 4
DICPCG:  Solving for T, Initial residual = 2.7118527e-07, Final residual = 2.7118527e-07, No Iterations 0
DICPCG:  Solving for T, Initial residual = 2.7118527e-07, Final residual = 2.7118527e-07, No Iterations 0
ExecutionTime = 0.41 s  ClockTime = 0 s

Time = 6.95

DICPCG:  Solving for T, Initial residual = 0.0015620845, Final residual = 2.7025513e-07, No Iterations 4
DICPCG:  Solving for T, Initial residual = 2.7009378e-07, Final residual = 2.7009378e-07, No Iterations 0
DICPCG:  Solving for T, Initial residual = 2.7009378e-07, Final residual = 2.7009378e-07, No Iterations 0
ExecutionTime = 0.42 s  ClockTime = 0 s

runTime.value(): 6.95
snapshotsTime: 6.9
Time = 7

DICPCG:  Solving for T, Initial residual = 0.0015544306, Final residual = 2.6916808e-07, No Iterations 4
DICPCG:  Solving for T, Initial residual = 2.6900992e-07, Final residual = 2.6900992e-07, No Iterations 0
DICPCG:  Solving for T, Initial residual = 2.6900992e-07, Final residual = 2.6900992e-07, No Iterations 0
ExecutionTime = 0.42 s  ClockTime = 0 s

Time = 7.05

DICPCG:  Solving for T, Initial residual = 0.0015468534, Final residual = 2.6808998e-07, No Iterations 4
DICPCG:  Solving for T, Initial residual = 2.6793495e-07, Final residual = 2.6793495e-07, No Iterations 0
DICPCG:  Solving for T, Initial residual = 2.6793495e-07, Final residual = 2.6793495e-07, No Iterations 0
ExecutionTime = 0.42 s  ClockTime = 0 s

runTime.value(): 7.05
snapshotsTime: 7
Time = 7.1

DICPCG:  Solving for T, Initial residual = 0.001539351, Final residual = 2.6702014e-07, No Iterations 4
DICPCG:  Solving for T, Initial residual = 2.6686816e-07, Final residual = 2.6686816e-07, No Iterations 0
DICPCG:  Solving for T, Initial residual = 2.6686816e-07, Final residual = 2.6686816e-07, No Iterations 0
ExecutionTime = 0.42 s  ClockTime = 0 s

Time = 7.15

DICPCG:  Solving for T, Initial residual = 0.0015319218, Final residual = 2.6595793e-07, No Iterations 4
DICPCG:  Solving for T, Initial residual = 2.6580893e-07, Final residual = 2.6580893e-07, No Iterations 0
DICPCG:  Solving for T, Initial residual = 2.6580893e-07, Final residual = 2.6580893e-07, No Iterations 0
ExecutionTime = 0.42 s  ClockTime = 0 s

runTime.value(): 7.15
snapshotsTime: 7.1
Time = 7.2

DICPCG:  Solving for T, Initial residual = 0.001524564, Final residual = 2.6490169e-07, No Iterations 4
DICPCG:  Solving for T, Initial residual = 2.6475561e-07, Final residual = 2.6475561e-07, No Iterations 0
DICPCG:  Solving for T, Initial residual = 2.6475561e-07, Final residual = 2.6475561e-07, No Iterations 0
ExecutionTime = 0.42 s  ClockTime = 0 s

Time = 7.25

DICPCG:  Solving for T, Initial residual = 0.0015172759, Final residual = 2.638505e-07, No Iterations 4
DICPCG:  Solving for T, Initial residual = 2.6370726e-07, Final residual = 2.6370726e-07, No Iterations 0
DICPCG:  Solving for T, Initial residual = 2.6370726e-07, Final residual = 2.6370726e-07, No Iterations 0
ExecutionTime = 0.42 s  ClockTime = 0 s

runTime.value(): 7.25
snapshotsTime: 7.2
Time = 7.3

DICPCG:  Solving for T, Initial residual = 0.0015100118, Final residual = 2.6279783e-07, No Iterations 4
DICPCG:  Solving for T, Initial residual = 2.6266508e-07, Final residual = 2.6266508e-07, No Iterations 0
DICPCG:  Solving for T, Initial residual = 2.6266508e-07, Final residual = 2.6266508e-07, No Iterations 0
ExecutionTime = 0.43 s  ClockTime = 0 s

Time = 7.35

DICPCG:  Solving for T, Initial residual = 0.0015027666, Final residual = 2.617451e-07, No Iterations 4
DICPCG:  Solving for T, Initial residual = 2.6162282e-07, Final residual = 2.6162282e-07, No Iterations 0
DICPCG:  Solving for T, Initial residual = 2.6162282e-07, Final residual = 2.6162282e-07, No Iterations 0
ExecutionTime = 0.43 s  ClockTime = 0 s

runTime.value(): 7.35
snapshotsTime: 7.3
Time = 7.4

DICPCG:  Solving for T, Initial residual = 0.0014955647, Final residual = 2.6069659e-07, No Iterations 4
DICPCG:  Solving for T, Initial residual = 2.6056504e-07, Final residual = 2.6056504e-07, No Iterations 0
DICPCG:  Solving for T, Initial residual = 2.6056504e-07, Final residual = 2.6056504e-07, No Iterations 0
ExecutionTime = 0.43 s  ClockTime = 0 s

Time = 7.45

DICPCG:  Solving for T, Initial residual = 0.001488361, Final residual = 2.5964394e-07, No Iterations 4
DICPCG:  Solving for T, Initial residual = 2.5951506e-07, Final residual = 2.5951506e-07, No Iterations 0
DICPCG:  Solving for T, Initial residual = 2.5951506e-07, Final residual = 2.5951506e-07, No Iterations 0
ExecutionTime = 0.43 s  ClockTime = 0 s

runTime.value(): 7.45
snapshotsTime: 7.4
Time = 7.5

DICPCG:  Solving for T, Initial residual = 0.0014812231, Final residual = 2.5859663e-07, No Iterations 4
DICPCG:  Solving for T, Initial residual = 2.5847037e-07, Final residual = 2.5847037e-07, No Iterations 0
DICPCG:  Solving for T, Initial residual = 2.5847037e-07, Final residual = 2.5847037e-07, No Iterations 0
ExecutionTime = 0.47 s  ClockTime = 0 s

Time = 7.55

DICPCG:  Solving for T, Initial residual = 0.0014741494, Final residual = 2.5755693e-07, No Iterations 4
DICPCG:  Solving for T, Initial residual = 2.5743322e-07, Final residual = 2.5743322e-07, No Iterations 0
DICPCG:  Solving for T, Initial residual = 2.5743322e-07, Final residual = 2.5743322e-07, No Iterations 0
ExecutionTime = 0.47 s  ClockTime = 0 s

runTime.value(): 7.55
snapshotsTime: 7.5
Time = 7.6

DICPCG:  Solving for T, Initial residual = 0.0014671386, Final residual = 2.5652706e-07, No Iterations 4
DICPCG:  Solving for T, Initial residual = 2.5640584e-07, Final residual = 2.5640584e-07, No Iterations 0
DICPCG:  Solving for T, Initial residual = 2.5640584e-07, Final residual = 2.5640584e-07, No Iterations 0
ExecutionTime = 0.47 s  ClockTime = 0 s

Time = 7.65

DICPCG:  Solving for T, Initial residual = 0.0014601893, Final residual = 2.5550389e-07, No Iterations 4
DICPCG:  Solving for T, Initial residual = 2.5538511e-07, Final residual = 2.5538511e-07, No Iterations 0
DICPCG:  Solving for T, Initial residual = 2.5538511e-07, Final residual = 2.5538511e-07, No Iterations 0
ExecutionTime = 0.48 s  ClockTime = 0 s

runTime.value(): 7.65
snapshotsTime: 7.6
Time = 7.7

DICPCG:  Solving for T, Initial residual = 0.0014533002, Final residual = 2.544901e-07, No Iterations 4
DICPCG:  Solving for T, Initial residual = 2.5437371e-07, Final residual = 2.5437371e-07, No Iterations 0
DICPCG:  Solving for T, Initial residual = 2.5437371e-07, Final residual = 2.5437371e-07, No Iterations 0
ExecutionTime = 0.48 s  ClockTime = 0 s

Time = 7.75

DICPCG:  Solving for T, Initial residual = 0.00144647, Final residual = 2.5348102e-07, No Iterations 4
DICPCG:  Solving for T, Initial residual = 2.5336696e-07, Final residual = 2.5336696e-07, No Iterations 0
DICPCG:  Solving for T, Initial residual = 2.5336696e-07, Final residual = 2.5336696e-07, No Iterations 0
ExecutionTime = 0.48 s  ClockTime = 0 s

runTime.value(): 7.75
snapshotsTime: 7.7
Time = 7.8

DICPCG:  Solving for T, Initial residual = 0.0014396976, Final residual = 2.5247703e-07, No Iterations 4
DICPCG:  Solving for T, Initial residual = 2.5236525e-07, Final residual = 2.5236525e-07, No Iterations 0
DICPCG:  Solving for T, Initial residual = 2.5236525e-07, Final residual = 2.5236525e-07, No Iterations 0
ExecutionTime = 0.48 s  ClockTime = 0 s

Time = 7.85

DICPCG:  Solving for T, Initial residual = 0.0014329817, Final residual = 2.5147977e-07, No Iterations 4
DICPCG:  Solving for T, Initial residual = 2.5137022e-07, Final residual = 2.5137022e-07, No Iterations 0
DICPCG:  Solving for T, Initial residual = 2.5137022e-07, Final residual = 2.5137022e-07, No Iterations 0
ExecutionTime = 0.48 s  ClockTime = 0 s

runTime.value(): 7.85
snapshotsTime: 7.8
Time = 7.9

DICPCG:  Solving for T, Initial residual = 0.0014263211, Final residual = 2.5048847e-07, No Iterations 4
DICPCG:  Solving for T, Initial residual = 2.503811e-07, Final residual = 2.503811e-07, No Iterations 0
DICPCG:  Solving for T, Initial residual = 2.503811e-07, Final residual = 2.503811e-07, No Iterations 0
ExecutionTime = 0.49 s  ClockTime = 0 s

Time = 7.95

DICPCG:  Solving for T, Initial residual = 0.0014197148, Final residual = 2.4950189e-07, No Iterations 4
DICPCG:  Solving for T, Initial residual = 2.4939665e-07, Final residual = 2.4939665e-07, No Iterations 0
DICPCG:  Solving for T, Initial residual = 2.4939665e-07, Final residual = 2.4939665e-07, No Iterations 0
ExecutionTime = 0.49 s  ClockTime = 0 s

runTime.value(): 7.95
snapshotsTime: 7.9
Time = 8

DICPCG:  Solving for T, Initial residual = 0.0014131617, Final residual = 2.4852101e-07, No Iterations 4
DICPCG:  Solving for T, Initial residual = 2.4841786e-07, Final residual = 2.4841786e-07, No Iterations 0
DICPCG:  Solving for T, Initial residual = 2.4841786e-07, Final residual = 2.4841786e-07, No Iterations 0
ExecutionTime = 0.49 s  ClockTime = 0 s

Time = 8.05

DICPCG:  Solving for T, Initial residual = 0.0014066606, Final residual = 2.4754561e-07, No Iterations 4
DICPCG:  Solving for T, Initial residual = 2.4744449e-07, Final residual = 2.4744449e-07, No Iterations 0
DICPCG:  Solving for T, Initial residual = 2.4744449e-07, Final residual = 2.4744449e-07, No Iterations 0
ExecutionTime = 0.49 s  ClockTime = 0 s

runTime.value(): 8.05
snapshotsTime: 8
Time = 8.1

DICPCG:  Solving for T, Initial residual = 0.0014002106, Final residual = 2.4657479e-07, No Iterations 4
DICPCG:  Solving for T, Initial residual = 2.4647567e-07, Final residual = 2.4647567e-07, No Iterations 0
DICPCG:  Solving for T, Initial residual = 2.4647567e-07, Final residual = 2.4647567e-07, No Iterations 0
ExecutionTime = 0.49 s  ClockTime = 0 s

Time = 8.15

DICPCG:  Solving for T, Initial residual = 0.0013938106, Final residual = 2.4560801e-07, No Iterations 4
DICPCG:  Solving for T, Initial residual = 2.4551083e-07, Final residual = 2.4551083e-07, No Iterations 0
DICPCG:  Solving for T, Initial residual = 2.4551083e-07, Final residual = 2.4551083e-07, No Iterations 0
ExecutionTime = 0.5 s  ClockTime = 0 s

runTime.value(): 8.15
snapshotsTime: 8.1
Time = 8.2

DICPCG:  Solving for T, Initial residual = 0.0013874598, Final residual = 2.4464662e-07, No Iterations 4
DICPCG:  Solving for T, Initial residual = 2.4455136e-07, Final residual = 2.4455136e-07, No Iterations 0
DICPCG:  Solving for T, Initial residual = 2.4455136e-07, Final residual = 2.4455136e-07, No Iterations 0
ExecutionTime = 0.5 s  ClockTime = 0 s

Time = 8.25

DICPCG:  Solving for T, Initial residual = 0.0013811571, Final residual = 2.4369048e-07, No Iterations 4
DICPCG:  Solving for T, Initial residual = 2.4359708e-07, Final residual = 2.4359708e-07, No Iterations 0
DICPCG:  Solving for T, Initial residual = 2.4359708e-07, Final residual = 2.4359708e-07, No Iterations 0
ExecutionTime = 0.5 s  ClockTime = 0 s

runTime.value(): 8.25
snapshotsTime: 8.2
Time = 8.3

DICPCG:  Solving for T, Initial residual = 0.0013749017, Final residual = 2.4273844e-07, No Iterations 4
DICPCG:  Solving for T, Initial residual = 2.4264687e-07, Final residual = 2.4264687e-07, No Iterations 0
DICPCG:  Solving for T, Initial residual = 2.4264687e-07, Final residual = 2.4264687e-07, No Iterations 0
ExecutionTime = 0.5 s  ClockTime = 0 s

Time = 8.35

DICPCG:  Solving for T, Initial residual = 0.0013686927, Final residual = 2.4179128e-07, No Iterations 4
DICPCG:  Solving for T, Initial residual = 2.4170149e-07, Final residual = 2.4170149e-07, No Iterations 0
DICPCG:  Solving for T, Initial residual = 2.4170149e-07, Final residual = 2.4170149e-07, No Iterations 0
ExecutionTime = 0.5 s  ClockTime = 0 s

runTime.value(): 8.35
snapshotsTime: 8.3
Time = 8.4

DICPCG:  Solving for T, Initial residual = 0.0013625292, Final residual = 2.4085004e-07, No Iterations 4
DICPCG:  Solving for T, Initial residual = 2.4076201e-07, Final residual = 2.4076201e-07, No Iterations 0
DICPCG:  Solving for T, Initial residual = 2.4076201e-07, Final residual = 2.4076201e-07, No Iterations 0
ExecutionTime = 0.51 s  ClockTime = 0 s

Time = 8.45

DICPCG:  Solving for T, Initial residual = 0.0013564104, Final residual = 2.3991317e-07, No Iterations 4
DICPCG:  Solving for T, Initial residual = 2.3982684e-07, Final residual = 2.3982684e-07, No Iterations 0
DICPCG:  Solving for T, Initial residual = 2.3982684e-07, Final residual = 2.3982684e-07, No Iterations 0
ExecutionTime = 0.51 s  ClockTime = 0 s

runTime.value(): 8.45
snapshotsTime: 8.4
Time = 8.5

DICPCG:  Solving for T, Initial residual = 0.0013503354, Final residual = 2.3898061e-07, No Iterations 4
DICPCG:  Solving for T, Initial residual = 2.3889596e-07, Final residual = 2.3889596e-07, No Iterations 0
DICPCG:  Solving for T, Initial residual = 2.3889596e-07, Final residual = 2.3889596e-07, No Iterations 0
ExecutionTime = 0.51 s  ClockTime = 0 s

runTime.value(): 8.5
snapshotsTime: 8.5
Time = 8.55

DICPCG:  Solving for T, Initial residual = 0.0013443036, Final residual = 2.3805195e-07, No Iterations 4
DICPCG:  Solving for T, Initial residual = 2.3796894e-07, Final residual = 2.3796894e-07, No Iterations 0
DICPCG:  Solving for T, Initial residual = 2.3796894e-07, Final residual = 2.3796894e-07, No Iterations 0
ExecutionTime = 0.51 s  ClockTime = 0 s

Time = 8.6

DICPCG:  Solving for T, Initial residual = 0.001338314, Final residual = 2.3712719e-07, No Iterations 4
DICPCG:  Solving for T, Initial residual = 2.3704578e-07, Final residual = 2.3704578e-07, No Iterations 0
DICPCG:  Solving for T, Initial residual = 2.3704578e-07, Final residual = 2.3704578e-07, No Iterations 0
ExecutionTime = 0.51 s  ClockTime = 0 s

runTime.value(): 8.6
snapshotsTime: 8.6
Time = 8.65

DICPCG:  Solving for T, Initial residual = 0.001332366, Final residual = 2.3620858e-07, No Iterations 4
DICPCG:  Solving for T, Initial residual = 2.3612874e-07, Final residual = 2.3612874e-07, No Iterations 0
DICPCG:  Solving for T, Initial residual = 2.3612874e-07, Final residual = 2.3612874e-07, No Iterations 0
ExecutionTime = 0.52 s  ClockTime = 0 s

Time = 8.7

DICPCG:  Solving for T, Initial residual = 0.0013264589, Final residual = 2.3529449e-07, No Iterations 4
DICPCG:  Solving for T, Initial residual = 2.352162e-07, Final residual = 2.352162e-07, No Iterations 0
DICPCG:  Solving for T, Initial residual = 2.352162e-07, Final residual = 2.352162e-07, No Iterations 0
ExecutionTime = 0.52 s  ClockTime = 0 s

runTime.value(): 8.7
snapshotsTime: 8.7
Time = 8.75

DICPCG:  Solving for T, Initial residual = 0.001320592, Final residual = 2.3438542e-07, No Iterations 4
DICPCG:  Solving for T, Initial residual = 2.3430863e-07, Final residual = 2.3430863e-07, No Iterations 0
DICPCG:  Solving for T, Initial residual = 2.3430863e-07, Final residual = 2.3430863e-07, No Iterations 0
ExecutionTime = 0.52 s  ClockTime = 0 s

Time = 8.8

DICPCG:  Solving for T, Initial residual = 0.0013147645, Final residual = 2.3347978e-07, No Iterations 4
DICPCG:  Solving for T, Initial residual = 2.3340446e-07, Final residual = 2.3340446e-07, No Iterations 0
DICPCG:  Solving for T, Initial residual = 2.3340446e-07, Final residual = 2.3340446e-07, No Iterations 0
ExecutionTime = 0.52 s  ClockTime = 0 s

runTime.value(): 8.8
snapshotsTime: 8.8
Time = 8.85

DICPCG:  Solving for T, Initial residual = 0.0013089758, Final residual = 2.32578e-07, No Iterations 4
DICPCG:  Solving for T, Initial residual = 2.3250412e-07, Final residual = 2.3250412e-07, No Iterations 0
DICPCG:  Solving for T, Initial residual = 2.3250412e-07, Final residual = 2.3250412e-07, No Iterations 0
ExecutionTime = 0.52 s  ClockTime = 0 s

Time = 8.9

DICPCG:  Solving for T, Initial residual = 0.0013032253, Final residual = 2.3168209e-07, No Iterations 4
DICPCG:  Solving for T, Initial residual = 2.3160963e-07, Final residual = 2.3160963e-07, No Iterations 0
DICPCG:  Solving for T, Initial residual = 2.3160963e-07, Final residual = 2.3160963e-07, No Iterations 0
ExecutionTime = 0.53 s  ClockTime = 0 s

runTime.value(): 8.9
snapshotsTime: 8.9
Time = 8.95

DICPCG:  Solving for T, Initial residual = 0.0012975123, Final residual = 2.307895e-07, No Iterations 4
DICPCG:  Solving for T, Initial residual = 2.3071841e-07, Final residual = 2.3071841e-07, No Iterations 0
DICPCG:  Solving for T, Initial residual = 2.3071841e-07, Final residual = 2.3071841e-07, No Iterations 0
ExecutionTime = 0.53 s  ClockTime = 0 s

Time = 9

DICPCG:  Solving for T, Initial residual = 0.0012918363, Final residual = 2.2990044e-07, No Iterations 4
DICPCG:  Solving for T, Initial residual = 2.2983071e-07, Final residual = 2.2983071e-07, No Iterations 0
DICPCG:  Solving for T, Initial residual = 2.2983071e-07, Final residual = 2.2983071e-07, No Iterations 0
ExecutionTime = 0.53 s  ClockTime = 0 s

runTime.value(): 9
snapshotsTime: 9
Time = 9.05

DICPCG:  Solving for T, Initial residual = 0.0012861966, Final residual = 2.2901666e-07, No Iterations 4
DICPCG:  Solving for T, Initial residual = 2.2894825e-07, Final residual = 2.2894825e-07, No Iterations 0
DICPCG:  Solving for T, Initial residual = 2.2894825e-07, Final residual = 2.2894825e-07, No Iterations 0
ExecutionTime = 0.53 s  ClockTime = 0 s

Time = 9.1

DICPCG:  Solving for T, Initial residual = 0.0012805926, Final residual = 2.2813806e-07, No Iterations 4
DICPCG:  Solving for T, Initial residual = 2.2807094e-07, Final residual = 2.2807094e-07, No Iterations 0
DICPCG:  Solving for T, Initial residual = 2.2807094e-07, Final residual = 2.2807094e-07, No Iterations 0
ExecutionTime = 0.53 s  ClockTime = 0 s

runTime.value(): 9.1
snapshotsTime: 9.1
Time = 9.15

DICPCG:  Solving for T, Initial residual = 0.0012750238, Final residual = 2.27264e-07, No Iterations 4
DICPCG:  Solving for T, Initial residual = 2.2719816e-07, Final residual = 2.2719816e-07, No Iterations 0
DICPCG:  Solving for T, Initial residual = 2.2719816e-07, Final residual = 2.2719816e-07, No Iterations 0
ExecutionTime = 0.54 s  ClockTime = 0 s

Time = 9.2

DICPCG:  Solving for T, Initial residual = 0.0012694897, Final residual = 2.2639359e-07, No Iterations 4
DICPCG:  Solving for T, Initial residual = 2.2632899e-07, Final residual = 2.2632899e-07, No Iterations 0
DICPCG:  Solving for T, Initial residual = 2.2632899e-07, Final residual = 2.2632899e-07, No Iterations 0
ExecutionTime = 0.54 s  ClockTime = 0 s

runTime.value(): 9.2
snapshotsTime: 9.2
Time = 9.25

DICPCG:  Solving for T, Initial residual = 0.0012639897, Final residual = 2.2552717e-07, No Iterations 4
DICPCG:  Solving for T, Initial residual = 2.2546379e-07, Final residual = 2.2546379e-07, No Iterations 0
DICPCG:  Solving for T, Initial residual = 2.2546379e-07, Final residual = 2.2546379e-07, No Iterations 0
ExecutionTime = 0.54 s  ClockTime = 0 s

Time = 9.3

DICPCG:  Solving for T, Initial residual = 0.0012585233, Final residual = 2.2466433e-07, No Iterations 4
DICPCG:  Solving for T, Initial residual = 2.2460214e-07, Final residual = 2.2460214e-07, No Iterations 0
DICPCG:  Solving for T, Initial residual = 2.2460214e-07, Final residual = 2.2460214e-07, No Iterations 0
ExecutionTime = 0.54 s  ClockTime = 0 s

runTime.value(): 9.3
snapshotsTime: 9.3
Time = 9.35

DICPCG:  Solving for T, Initial residual = 0.00125309, Final residual = 2.2380585e-07, No Iterations 4
DICPCG:  Solving for T, Initial residual = 2.2374482e-07, Final residual = 2.2374482e-07, No Iterations 0
DICPCG:  Solving for T, Initial residual = 2.2374482e-07, Final residual = 2.2374482e-07, No Iterations 0
ExecutionTime = 0.54 s  ClockTime = 0 s

Time = 9.4

DICPCG:  Solving for T, Initial residual = 0.0012476893, Final residual = 2.2295161e-07, No Iterations 4
DICPCG:  Solving for T, Initial residual = 2.2289173e-07, Final residual = 2.2289173e-07, No Iterations 0
DICPCG:  Solving for T, Initial residual = 2.2289173e-07, Final residual = 2.2289173e-07, No Iterations 0
ExecutionTime = 0.55 s  ClockTime = 0 s

runTime.value(): 9.4
snapshotsTime: 9.4
Time = 9.45

DICPCG:  Solving for T, Initial residual = 0.0012423207, Final residual = 2.2210169e-07, No Iterations 4
DICPCG:  Solving for T, Initial residual = 2.2204293e-07, Final residual = 2.2204293e-07, No Iterations 0
DICPCG:  Solving for T, Initial residual = 2.2204293e-07, Final residual = 2.2204293e-07, No Iterations 0
ExecutionTime = 0.55 s  ClockTime = 0 s

Time = 9.5

DICPCG:  Solving for T, Initial residual = 0.0012369838, Final residual = 2.2125471e-07, No Iterations 4
DICPCG:  Solving for T, Initial residual = 2.2119705e-07, Final residual = 2.2119705e-07, No Iterations 0
DICPCG:  Solving for T, Initial residual = 2.2119705e-07, Final residual = 2.2119705e-07, No Iterations 0
ExecutionTime = 0.55 s  ClockTime = 0 s

runTime.value(): 9.5
snapshotsTime: 9.5
Time = 9.55

DICPCG:  Solving for T, Initial residual = 0.0012316781, Final residual = 2.2041089e-07, No Iterations 4
DICPCG:  Solving for T, Initial residual = 2.203543e-07, Final residual = 2.203543e-07, No Iterations 0
DICPCG:  Solving for T, Initial residual = 2.203543e-07, Final residual = 2.203543e-07, No Iterations 0
ExecutionTime = 0.55 s  ClockTime = 0 s

Time = 9.6

DICPCG:  Solving for T, Initial residual = 0.0012264032, Final residual = 2.1957036e-07, No Iterations 4
DICPCG:  Solving for T, Initial residual = 2.1951482e-07, Final residual = 2.1951482e-07, No Iterations 0
DICPCG:  Solving for T, Initial residual = 2.1951482e-07, Final residual = 2.1951482e-07, No Iterations 0
ExecutionTime = 0.55 s  ClockTime = 0 s

runTime.value(): 9.6
snapshotsTime: 9.6
Time = 9.65

DICPCG:  Solving for T, Initial residual = 0.0012211586, Final residual = 2.1873318e-07, No Iterations 4
DICPCG:  Solving for T, Initial residual = 2.1867867e-07, Final residual = 2.1867867e-07, No Iterations 0
DICPCG:  Solving for T, Initial residual = 2.1867867e-07, Final residual = 2.1867867e-07, No Iterations 0
ExecutionTime = 0.56 s  ClockTime = 0 s

Time = 9.7

DICPCG:  Solving for T, Initial residual = 0.0012159439, Final residual = 2.1790091e-07, No Iterations 4
DICPCG:  Solving for T, Initial residual = 2.1784741e-07, Final residual = 2.1784741e-07, No Iterations 0
DICPCG:  Solving for T, Initial residual = 2.1784741e-07, Final residual = 2.1784741e-07, No Iterations 0
ExecutionTime = 0.56 s  ClockTime = 0 s

runTime.value(): 9.7
snapshotsTime: 9.7
Time = 9.75

DICPCG:  Solving for T, Initial residual = 0.0012107587, Final residual = 2.1707259e-07, No Iterations 4
DICPCG:  Solving for T, Initial residual = 2.1702008e-07, Final residual = 2.1702008e-07, No Iterations 0
DICPCG:  Solving for T, Initial residual = 2.1702008e-07, Final residual = 2.1702008e-07, No Iterations 0
ExecutionTime = 0.56 s  ClockTime = 0 s

Time = 9.8

DICPCG:  Solving for T, Initial residual = 0.0012055846, Final residual = 2.1624407e-07, No Iterations 4
DICPCG:  Solving for T, Initial residual = 2.1619576e-07, Final residual = 2.1619576e-07, No Iterations 0
DICPCG:  Solving for T, Initial residual = 2.1619576e-07, Final residual = 2.1619576e-07, No Iterations 0
ExecutionTime = 0.56 s  ClockTime = 0 s

runTime.value(): 9.8
snapshotsTime: 9.8
Time = 9.85

DICPCG:  Solving for T, Initial residual = 0.001200409, Final residual = 2.1541333e-07, No Iterations 4
DICPCG:  Solving for T, Initial residual = 2.1537462e-07, Final residual = 2.1537462e-07, No Iterations 0
DICPCG:  Solving for T, Initial residual = 2.1537462e-07, Final residual = 2.1537462e-07, No Iterations 0
ExecutionTime = 0.56 s  ClockTime = 0 s

Time = 9.9

DICPCG:  Solving for T, Initial residual = 0.0011952626, Final residual = 2.1458615e-07, No Iterations 4
DICPCG:  Solving for T, Initial residual = 2.1454163e-07, Final residual = 2.1454163e-07, No Iterations 0
DICPCG:  Solving for T, Initial residual = 2.1454163e-07, Final residual = 2.1454163e-07, No Iterations 0
ExecutionTime = 0.57 s  ClockTime = 0 s

runTime.value(): 9.9
snapshotsTime: 9.9
Time = 9.95

DICPCG:  Solving for T, Initial residual = 0.0011901026, Final residual = 2.1375481e-07, No Iterations 4
DICPCG:  Solving for T, Initial residual = 2.1371021e-07, Final residual = 2.1371021e-07, No Iterations 0
DICPCG:  Solving for T, Initial residual = 2.1371021e-07, Final residual = 2.1371021e-07, No Iterations 0
ExecutionTime = 0.57 s  ClockTime = 0 s

Time = 10

DICPCG:  Solving for T, Initial residual = 0.0011849662, Final residual = 2.129255e-07, No Iterations 4
DICPCG:  Solving for T, Initial residual = 2.1288179e-07, Final residual = 2.1288179e-07, No Iterations 0
DICPCG:  Solving for T, Initial residual = 2.1288179e-07, Final residual = 2.1288179e-07, No Iterations 0
ExecutionTime = 0.6 s  ClockTime = 0 s

runTime.value(): 10
snapshotsTime: 10
Time = 10.05

DICPCG:  Solving for T, Initial residual = 0.0011798585, Final residual = 2.1209989e-07, No Iterations 4
DICPCG:  Solving for T, Initial residual = 2.1205705e-07, Final residual = 2.1205705e-07, No Iterations 0
DICPCG:  Solving for T, Initial residual = 2.1205705e-07, Final residual = 2.1205705e-07, No Iterations 0
ExecutionTime = 0.6 s  ClockTime = 0 s

Time = 10.1

[...]
DICPCG:  Solving for T, Initial residual = 9.9762337e-07, Final residual = 9.9762337e-07, No Iterations 0
DICPCG:  Solving for T, Initial residual = 9.9762337e-07, Final residual = 9.9762337e-07, No Iterations 0
ExecutionTime = 4.55 s  ClockTime = 4 s

runTime.value(): 97.55
snapshotsTime: 97.5
Time = 97.6

DICPCG:  Solving for T, Initial residual = 9.9762337e-07, Final residual = 9.9762337e-07, No Iterations 0
DICPCG:  Solving for T, Initial residual = 9.9762337e-07, Final residual = 9.9762337e-07, No Iterations 0
DICPCG:  Solving for T, Initial residual = 9.9762337e-07, Final residual = 9.9762337e-07, No Iterations 0
ExecutionTime = 4.55 s  ClockTime = 4 s

Time = 97.65

DICPCG:  Solving for T, Initial residual = 9.9762337e-07, Final residual = 9.9762337e-07, No Iterations 0
DICPCG:  Solving for T, Initial residual = 9.9762337e-07, Final residual = 9.9762337e-07, No Iterations 0
DICPCG:  Solving for T, Initial residual = 9.9762337e-07, Final residual = 9.9762337e-07, No Iterations 0
ExecutionTime = 4.55 s  ClockTime = 4 s

runTime.value(): 97.65
snapshotsTime: 97.6
Time = 97.7

DICPCG:  Solving for T, Initial residual = 9.9762337e-07, Final residual = 9.9762337e-07, No Iterations 0
DICPCG:  Solving for T, Initial residual = 9.9762337e-07, Final residual = 9.9762337e-07, No Iterations 0
DICPCG:  Solving for T, Initial residual = 9.9762337e-07, Final residual = 9.9762337e-07, No Iterations 0
ExecutionTime = 4.56 s  ClockTime = 4 s

Time = 97.75

DICPCG:  Solving for T, Initial residual = 9.9762337e-07, Final residual = 9.9762337e-07, No Iterations 0
DICPCG:  Solving for T, Initial residual = 9.9762337e-07, Final residual = 9.9762337e-07, No Iterations 0
DICPCG:  Solving for T, Initial residual = 9.9762337e-07, Final residual = 9.9762337e-07, No Iterations 0
ExecutionTime = 4.56 s  ClockTime = 4 s

runTime.value(): 97.75
snapshotsTime: 97.7
Time = 97.8

DICPCG:  Solving for T, Initial residual = 9.9762337e-07, Final residual = 9.9762337e-07, No Iterations 0
DICPCG:  Solving for T, Initial residual = 9.9762337e-07, Final residual = 9.9762337e-07, No Iterations 0
DICPCG:  Solving for T, Initial residual = 9.9762337e-07, Final residual = 9.9762337e-07, No Iterations 0
ExecutionTime = 4.56 s  ClockTime = 4 s

Time = 97.85

DICPCG:  Solving for T, Initial residual = 9.9762337e-07, Final residual = 9.9762337e-07, No Iterations 0
DICPCG:  Solving for T, Initial residual = 9.9762337e-07, Final residual = 9.9762337e-07, No Iterations 0
DICPCG:  Solving for T, Initial residual = 9.9762337e-07, Final residual = 9.9762337e-07, No Iterations 0
ExecutionTime = 4.56 s  ClockTime = 4 s

runTime.value(): 97.85
snapshotsTime: 97.8
Time = 97.9

DICPCG:  Solving for T, Initial residual = 9.9762337e-07, Final residual = 9.9762337e-07, No Iterations 0
DICPCG:  Solving for T, Initial residual = 9.9762337e-07, Final residual = 9.9762337e-07, No Iterations 0
DICPCG:  Solving for T, Initial residual = 9.9762337e-07, Final residual = 9.9762337e-07, No Iterations 0
ExecutionTime = 4.56 s  ClockTime = 4 s

Time = 97.95

DICPCG:  Solving for T, Initial residual = 9.9762337e-07, Final residual = 9.9762337e-07, No Iterations 0
DICPCG:  Solving for T, Initial residual = 9.9762337e-07, Final residual = 9.9762337e-07, No Iterations 0
DICPCG:  Solving for T, Initial residual = 9.9762337e-07, Final residual = 9.9762337e-07, No Iterations 0
ExecutionTime = 4.56 s  ClockTime = 4 s

runTime.value(): 97.95
snapshotsTime: 97.9
Time = 98

DICPCG:  Solving for T, Initial residual = 9.9762337e-07, Final residual = 9.9762337e-07, No Iterations 0
DICPCG:  Solving for T, Initial residual = 9.9762337e-07, Final residual = 9.9762337e-07, No Iterations 0
DICPCG:  Solving for T, Initial residual = 9.9762337e-07, Final residual = 9.9762337e-07, No Iterations 0
ExecutionTime = 4.56 s  ClockTime = 4 s

Time = 98.05

DICPCG:  Solving for T, Initial residual = 9.9762337e-07, Final residual = 9.9762337e-07, No Iterations 0
DICPCG:  Solving for T, Initial residual = 9.9762337e-07, Final residual = 9.9762337e-07, No Iterations 0
DICPCG:  Solving for T, Initial residual = 9.9762337e-07, Final residual = 9.9762337e-07, No Iterations 0
ExecutionTime = 4.57 s  ClockTime = 4 s

runTime.value(): 98.05
snapshotsTime: 98
Time = 98.1

DICPCG:  Solving for T, Initial residual = 9.9762337e-07, Final residual = 9.9762337e-07, No Iterations 0
DICPCG:  Solving for T, Initial residual = 9.9762337e-07, Final residual = 9.9762337e-07, No Iterations 0
DICPCG:  Solving for T, Initial residual = 9.9762337e-07, Final residual = 9.9762337e-07, No Iterations 0
ExecutionTime = 4.57 s  ClockTime = 4 s

Time = 98.15

DICPCG:  Solving for T, Initial residual = 9.9762337e-07, Final residual = 9.9762337e-07, No Iterations 0
DICPCG:  Solving for T, Initial residual = 9.9762337e-07, Final residual = 9.9762337e-07, No Iterations 0
DICPCG:  Solving for T, Initial residual = 9.9762337e-07, Final residual = 9.9762337e-07, No Iterations 0
ExecutionTime = 4.57 s  ClockTime = 4 s

runTime.value(): 98.15
snapshotsTime: 98.1
Time = 98.2

DICPCG:  Solving for T, Initial residual = 9.9762337e-07, Final residual = 9.9762337e-07, No Iterations 0
DICPCG:  Solving for T, Initial residual = 9.9762337e-07, Final residual = 9.9762337e-07, No Iterations 0
DICPCG:  Solving for T, Initial residual = 9.9762337e-07, Final residual = 9.9762337e-07, No Iterations 0
ExecutionTime = 4.57 s  ClockTime = 4 s

Time = 98.25

DICPCG:  Solving for T, Initial residual = 9.9762337e-07, Final residual = 9.9762337e-07, No Iterations 0
DICPCG:  Solving for T, Initial residual = 9.9762337e-07, Final residual = 9.9762337e-07, No Iterations 0
DICPCG:  Solving for T, Initial residual = 9.9762337e-07, Final residual = 9.9762337e-07, No Iterations 0
ExecutionTime = 4.57 s  ClockTime = 4 s

runTime.value(): 98.25
snapshotsTime: 98.2
Time = 98.3

DICPCG:  Solving for T, Initial residual = 9.9762337e-07, Final residual = 9.9762337e-07, No Iterations 0
DICPCG:  Solving for T, Initial residual = 9.9762337e-07, Final residual = 9.9762337e-07, No Iterations 0
DICPCG:  Solving for T, Initial residual = 9.9762337e-07, Final residual = 9.9762337e-07, No Iterations 0
ExecutionTime = 4.57 s  ClockTime = 4 s

Time = 98.35

DICPCG:  Solving for T, Initial residual = 9.9762337e-07, Final residual = 9.9762337e-07, No Iterations 0
DICPCG:  Solving for T, Initial residual = 9.9762337e-07, Final residual = 9.9762337e-07, No Iterations 0
DICPCG:  Solving for T, Initial residual = 9.9762337e-07, Final residual = 9.9762337e-07, No Iterations 0
ExecutionTime = 4.58 s  ClockTime = 4 s

runTime.value(): 98.35
snapshotsTime: 98.3
Time = 98.4

DICPCG:  Solving for T, Initial residual = 9.9762337e-07, Final residual = 9.9762337e-07, No Iterations 0
DICPCG:  Solving for T, Initial residual = 9.9762337e-07, Final residual = 9.9762337e-07, No Iterations 0
DICPCG:  Solving for T, Initial residual = 9.9762337e-07, Final residual = 9.9762337e-07, No Iterations 0
ExecutionTime = 4.58 s  ClockTime = 4 s

Time = 98.45

DICPCG:  Solving for T, Initial residual = 9.9762337e-07, Final residual = 9.9762337e-07, No Iterations 0
DICPCG:  Solving for T, Initial residual = 9.9762337e-07, Final residual = 9.9762337e-07, No Iterations 0
DICPCG:  Solving for T, Initial residual = 9.9762337e-07, Final residual = 9.9762337e-07, No Iterations 0
ExecutionTime = 4.58 s  ClockTime = 4 s

runTime.value(): 98.45
snapshotsTime: 98.4
Time = 98.5

DICPCG:  Solving for T, Initial residual = 9.9762337e-07, Final residual = 9.9762337e-07, No Iterations 0
DICPCG:  Solving for T, Initial residual = 9.9762337e-07, Final residual = 9.9762337e-07, No Iterations 0
DICPCG:  Solving for T, Initial residual = 9.9762337e-07, Final residual = 9.9762337e-07, No Iterations 0
ExecutionTime = 4.58 s  ClockTime = 4 s

Time = 98.55

DICPCG:  Solving for T, Initial residual = 9.9762337e-07, Final residual = 9.9762337e-07, No Iterations 0
DICPCG:  Solving for T, Initial residual = 9.9762337e-07, Final residual = 9.9762337e-07, No Iterations 0
DICPCG:  Solving for T, Initial residual = 9.9762337e-07, Final residual = 9.9762337e-07, No Iterations 0
ExecutionTime = 4.58 s  ClockTime = 4 s

runTime.value(): 98.55
snapshotsTime: 98.5
Time = 98.6

DICPCG:  Solving for T, Initial residual = 9.9762337e-07, Final residual = 9.9762337e-07, No Iterations 0
DICPCG:  Solving for T, Initial residual = 9.9762337e-07, Final residual = 9.9762337e-07, No Iterations 0
DICPCG:  Solving for T, Initial residual = 9.9762337e-07, Final residual = 9.9762337e-07, No Iterations 0
ExecutionTime = 4.58 s  ClockTime = 4 s

Time = 98.65

DICPCG:  Solving for T, Initial residual = 9.9762337e-07, Final residual = 9.9762337e-07, No Iterations 0
DICPCG:  Solving for T, Initial residual = 9.9762337e-07, Final residual = 9.9762337e-07, No Iterations 0
DICPCG:  Solving for T, Initial residual = 9.9762337e-07, Final residual = 9.9762337e-07, No Iterations 0
ExecutionTime = 4.58 s  ClockTime = 4 s

runTime.value(): 98.65
snapshotsTime: 98.6
Time = 98.7

DICPCG:  Solving for T, Initial residual = 9.9762337e-07, Final residual = 9.9762337e-07, No Iterations 0
DICPCG:  Solving for T, Initial residual = 9.9762337e-07, Final residual = 9.9762337e-07, No Iterations 0
DICPCG:  Solving for T, Initial residual = 9.9762337e-07, Final residual = 9.9762337e-07, No Iterations 0
ExecutionTime = 4.59 s  ClockTime = 4 s

Time = 98.75

DICPCG:  Solving for T, Initial residual = 9.9762337e-07, Final residual = 9.9762337e-07, No Iterations 0
DICPCG:  Solving for T, Initial residual = 9.9762337e-07, Final residual = 9.9762337e-07, No Iterations 0
DICPCG:  Solving for T, Initial residual = 9.9762337e-07, Final residual = 9.9762337e-07, No Iterations 0
ExecutionTime = 4.59 s  ClockTime = 4 s

runTime.value(): 98.75
snapshotsTime: 98.7
Time = 98.8

DICPCG:  Solving for T, Initial residual = 9.9762337e-07, Final residual = 9.9762337e-07, No Iterations 0
DICPCG:  Solving for T, Initial residual = 9.9762337e-07, Final residual = 9.9762337e-07, No Iterations 0
DICPCG:  Solving for T, Initial residual = 9.9762337e-07, Final residual = 9.9762337e-07, No Iterations 0
ExecutionTime = 4.59 s  ClockTime = 4 s

Time = 98.85

DICPCG:  Solving for T, Initial residual = 9.9762337e-07, Final residual = 9.9762337e-07, No Iterations 0
DICPCG:  Solving for T, Initial residual = 9.9762337e-07, Final residual = 9.9762337e-07, No Iterations 0
DICPCG:  Solving for T, Initial residual = 9.9762337e-07, Final residual = 9.9762337e-07, No Iterations 0
ExecutionTime = 4.59 s  ClockTime = 4 s

runTime.value(): 98.85
snapshotsTime: 98.8
Time = 98.9

DICPCG:  Solving for T, Initial residual = 9.9762337e-07, Final residual = 9.9762337e-07, No Iterations 0
DICPCG:  Solving for T, Initial residual = 9.9762337e-07, Final residual = 9.9762337e-07, No Iterations 0
DICPCG:  Solving for T, Initial residual = 9.9762337e-07, Final residual = 9.9762337e-07, No Iterations 0
ExecutionTime = 4.59 s  ClockTime = 4 s

Time = 98.95

DICPCG:  Solving for T, Initial residual = 9.9762337e-07, Final residual = 9.9762337e-07, No Iterations 0
DICPCG:  Solving for T, Initial residual = 9.9762337e-07, Final residual = 9.9762337e-07, No Iterations 0
DICPCG:  Solving for T, Initial residual = 9.9762337e-07, Final residual = 9.9762337e-07, No Iterations 0
ExecutionTime = 4.59 s  ClockTime = 4 s

runTime.value(): 98.95
snapshotsTime: 98.9
Time = 99

DICPCG:  Solving for T, Initial residual = 9.9762337e-07, Final residual = 9.9762337e-07, No Iterations 0
DICPCG:  Solving for T, Initial residual = 9.9762337e-07, Final residual = 9.9762337e-07, No Iterations 0
DICPCG:  Solving for T, Initial residual = 9.9762337e-07, Final residual = 9.9762337e-07, No Iterations 0
ExecutionTime = 4.6 s  ClockTime = 4 s

Time = 99.05

DICPCG:  Solving for T, Initial residual = 9.9762337e-07, Final residual = 9.9762337e-07, No Iterations 0
DICPCG:  Solving for T, Initial residual = 9.9762337e-07, Final residual = 9.9762337e-07, No Iterations 0
DICPCG:  Solving for T, Initial residual = 9.9762337e-07, Final residual = 9.9762337e-07, No Iterations 0
ExecutionTime = 4.6 s  ClockTime = 4 s

runTime.value(): 99.05
snapshotsTime: 99
Time = 99.1

DICPCG:  Solving for T, Initial residual = 9.9762337e-07, Final residual = 9.9762337e-07, No Iterations 0
DICPCG:  Solving for T, Initial residual = 9.9762337e-07, Final residual = 9.9762337e-07, No Iterations 0
DICPCG:  Solving for T, Initial residual = 9.9762337e-07, Final residual = 9.9762337e-07, No Iterations 0
ExecutionTime = 4.6 s  ClockTime = 4 s

Time = 99.15

DICPCG:  Solving for T, Initial residual = 9.9762337e-07, Final residual = 9.9762337e-07, No Iterations 0
DICPCG:  Solving for T, Initial residual = 9.9762337e-07, Final residual = 9.9762337e-07, No Iterations 0
DICPCG:  Solving for T, Initial residual = 9.9762337e-07, Final residual = 9.9762337e-07, No Iterations 0
ExecutionTime = 4.6 s  ClockTime = 4 s

runTime.value(): 99.15
snapshotsTime: 99.1
Time = 99.2

DICPCG:  Solving for T, Initial residual = 9.9762337e-07, Final residual = 9.9762337e-07, No Iterations 0
DICPCG:  Solving for T, Initial residual = 9.9762337e-07, Final residual = 9.9762337e-07, No Iterations 0
DICPCG:  Solving for T, Initial residual = 9.9762337e-07, Final residual = 9.9762337e-07, No Iterations 0
ExecutionTime = 4.6 s  ClockTime = 4 s

Time = 99.25

DICPCG:  Solving for T, Initial residual = 9.9762337e-07, Final residual = 9.9762337e-07, No Iterations 0
DICPCG:  Solving for T, Initial residual = 9.9762337e-07, Final residual = 9.9762337e-07, No Iterations 0
DICPCG:  Solving for T, Initial residual = 9.9762337e-07, Final residual = 9.9762337e-07, No Iterations 0
ExecutionTime = 4.6 s  ClockTime = 4 s

runTime.value(): 99.25
snapshotsTime: 99.2
Time = 99.3

DICPCG:  Solving for T, Initial residual = 9.9762337e-07, Final residual = 9.9762337e-07, No Iterations 0
DICPCG:  Solving for T, Initial residual = 9.9762337e-07, Final residual = 9.9762337e-07, No Iterations 0
DICPCG:  Solving for T, Initial residual = 9.9762337e-07, Final residual = 9.9762337e-07, No Iterations 0
ExecutionTime = 4.6 s  ClockTime = 4 s

Time = 99.35

DICPCG:  Solving for T, Initial residual = 9.9762337e-07, Final residual = 9.9762337e-07, No Iterations 0
DICPCG:  Solving for T, Initial residual = 9.9762337e-07, Final residual = 9.9762337e-07, No Iterations 0
DICPCG:  Solving for T, Initial residual = 9.9762337e-07, Final residual = 9.9762337e-07, No Iterations 0
ExecutionTime = 4.61 s  ClockTime = 4 s

runTime.value(): 99.35
snapshotsTime: 99.3
Time = 99.4

DICPCG:  Solving for T, Initial residual = 9.9762337e-07, Final residual = 9.9762337e-07, No Iterations 0
DICPCG:  Solving for T, Initial residual = 9.9762337e-07, Final residual = 9.9762337e-07, No Iterations 0
DICPCG:  Solving for T, Initial residual = 9.9762337e-07, Final residual = 9.9762337e-07, No Iterations 0
ExecutionTime = 4.61 s  ClockTime = 4 s

Time = 99.45

DICPCG:  Solving for T, Initial residual = 9.9762337e-07, Final residual = 9.9762337e-07, No Iterations 0
DICPCG:  Solving for T, Initial residual = 9.9762337e-07, Final residual = 9.9762337e-07, No Iterations 0
DICPCG:  Solving for T, Initial residual = 9.9762337e-07, Final residual = 9.9762337e-07, No Iterations 0
ExecutionTime = 4.61 s  ClockTime = 4 s

runTime.value(): 99.45
snapshotsTime: 99.4
Time = 99.5

DICPCG:  Solving for T, Initial residual = 9.9762337e-07, Final residual = 9.9762337e-07, No Iterations 0
DICPCG:  Solving for T, Initial residual = 9.9762337e-07, Final residual = 9.9762337e-07, No Iterations 0
DICPCG:  Solving for T, Initial residual = 9.9762337e-07, Final residual = 9.9762337e-07, No Iterations 0
ExecutionTime = 4.61 s  ClockTime = 4 s

Time = 99.55

DICPCG:  Solving for T, Initial residual = 9.9762337e-07, Final residual = 9.9762337e-07, No Iterations 0
DICPCG:  Solving for T, Initial residual = 9.9762337e-07, Final residual = 9.9762337e-07, No Iterations 0
DICPCG:  Solving for T, Initial residual = 9.9762337e-07, Final residual = 9.9762337e-07, No Iterations 0
ExecutionTime = 4.61 s  ClockTime = 4 s

runTime.value(): 99.55
snapshotsTime: 99.5
Time = 99.6

DICPCG:  Solving for T, Initial residual = 9.9762337e-07, Final residual = 9.9762337e-07, No Iterations 0
DICPCG:  Solving for T, Initial residual = 9.9762337e-07, Final residual = 9.9762337e-07, No Iterations 0
DICPCG:  Solving for T, Initial residual = 9.9762337e-07, Final residual = 9.9762337e-07, No Iterations 0
ExecutionTime = 4.61 s  ClockTime = 4 s

Time = 99.65

DICPCG:  Solving for T, Initial residual = 9.9762337e-07, Final residual = 9.9762337e-07, No Iterations 0
DICPCG:  Solving for T, Initial residual = 9.9762337e-07, Final residual = 9.9762337e-07, No Iterations 0
DICPCG:  Solving for T, Initial residual = 9.9762337e-07, Final residual = 9.9762337e-07, No Iterations 0
ExecutionTime = 4.62 s  ClockTime = 4 s

runTime.value(): 99.65
snapshotsTime: 99.6
Time = 99.7

DICPCG:  Solving for T, Initial residual = 9.9762337e-07, Final residual = 9.9762337e-07, No Iterations 0
DICPCG:  Solving for T, Initial residual = 9.9762337e-07, Final residual = 9.9762337e-07, No Iterations 0
DICPCG:  Solving for T, Initial residual = 9.9762337e-07, Final residual = 9.9762337e-07, No Iterations 0
ExecutionTime = 4.62 s  ClockTime = 4 s

Time = 99.75

DICPCG:  Solving for T, Initial residual = 9.9762337e-07, Final residual = 9.9762337e-07, No Iterations 0
DICPCG:  Solving for T, Initial residual = 9.9762337e-07, Final residual = 9.9762337e-07, No Iterations 0
DICPCG:  Solving for T, Initial residual = 9.9762337e-07, Final residual = 9.9762337e-07, No Iterations 0
ExecutionTime = 4.62 s  ClockTime = 4 s

runTime.value(): 99.75
snapshotsTime: 99.7
Time = 99.8

DICPCG:  Solving for T, Initial residual = 9.9762337e-07, Final residual = 9.9762337e-07, No Iterations 0
DICPCG:  Solving for T, Initial residual = 9.9762337e-07, Final residual = 9.9762337e-07, No Iterations 0
DICPCG:  Solving for T, Initial residual = 9.9762337e-07, Final residual = 9.9762337e-07, No Iterations 0
ExecutionTime = 4.62 s  ClockTime = 4 s

Time = 99.85

DICPCG:  Solving for T, Initial residual = 9.9762337e-07, Final residual = 9.9762337e-07, No Iterations 0
DICPCG:  Solving for T, Initial residual = 9.9762337e-07, Final residual = 9.9762337e-07, No Iterations 0
DICPCG:  Solving for T, Initial residual = 9.9762337e-07, Final residual = 9.9762337e-07, No Iterations 0
ExecutionTime = 4.62 s  ClockTime = 4 s

runTime.value(): 99.85
snapshotsTime: 99.8
Time = 99.9

DICPCG:  Solving for T, Initial residual = 9.9762337e-07, Final residual = 9.9762337e-07, No Iterations 0
DICPCG:  Solving for T, Initial residual = 9.9762337e-07, Final residual = 9.9762337e-07, No Iterations 0
DICPCG:  Solving for T, Initial residual = 9.9762337e-07, Final residual = 9.9762337e-07, No Iterations 0
ExecutionTime = 4.62 s  ClockTime = 4 s

Time = 99.95

DICPCG:  Solving for T, Initial residual = 9.9762337e-07, Final residual = 9.9762337e-07, No Iterations 0
DICPCG:  Solving for T, Initial residual = 9.9762337e-07, Final residual = 9.9762337e-07, No Iterations 0
DICPCG:  Solving for T, Initial residual = 9.9762337e-07, Final residual = 9.9762337e-07, No Iterations 0
ExecutionTime = 4.63 s  ClockTime = 4 s

runTime.value(): 99.95
snapshotsTime: 99.9
Time = 100

DICPCG:  Solving for T, Initial residual = 9.9762337e-07, Final residual = 9.9762337e-07, No Iterations 0
DICPCG:  Solving for T, Initial residual = 9.9762337e-07, Final residual = 9.9762337e-07, No Iterations 0
DICPCG:  Solving for T, Initial residual = 9.9762337e-07, Final residual = 9.9762337e-07, No Iterations 0
ExecutionTime = 4.66 s  ClockTime = 4 s

End

The simulation of FOM is finished in 4.66 s.
snapshots number is: 1000
snapshotsTime is: 100
The SVD process of snapshots are finished in 63.79 s.
write svd data

write Snapshot Matrix: (4000 1000)
write spatial mode Matrix: (4000 1000)
write temporal coefficient Matrix: (1000 1000)
write eigenvalue: 1000
laplacian of modes Matrix: (4000 6)
The solver is finished in 69.19 s.

