/*---------------------------------------------------------------------------*\
| =========                 |                                                 |
| \\      /  F ield         | OpenFOAM: The Open Source CFD Toolbox           |
|  \\    /   O peration     | Version:  v2106                                 |
|   \\  /    A nd           | Website:  www.openfoam.com                      |
|    \\/     M anipulation  |                                                 |
\*---------------------------------------------------------------------------*/
Build  : _c15bfde3cb-20210624 OPENFOAM=2106
Arch   : "LSB;label=32;scalar=64"
Exec   : laplacianFoamTestLifting
Date   : Jun 22 2022
Time   : 00:59:00
Host   : Sh-Ruan-matebook
PID    : 2587
I/O    : uncollated
Case   : /home/shenhui_ruan/gitFolder/RshOpenFOAMSourceCode/laplacianFoamTestLifting/svdtest
nProcs : 1
trapFpe: Floating point exception trapping enabled (FOAM_SIGFPE).
fileModificationChecking : Monitoring run-time modified files using timeStampMaster (fileModificationSkew 5, maxFileModificationPolls 20)
allowSystemOperations : Allowing user-supplied system call operations

// * * * * * * * * * * * * * * * * * * * * * * * * * * * * * * * * * * * * * //
Create time

Create mesh for time = 0


SIMPLE: no convergence criteria found. Calculations will run for 50 steps.

Reading field T

Reading diffusivity DT

No finite volume options present

Calculating temperature distribution

snapshots extract
time Interval of snapshots is: 1

Time = 0.05

DICPCG:  Solving for T, Initial residual = 1, Final residual = 5.63252e-07, No Iterations 5
DICPCG:  Solving for T, Initial residual = 1.76016e-07, Final residual = 1.76016e-07, No Iterations 0
DICPCG:  Solving for T, Initial residual = 1.76016e-07, Final residual = 1.76016e-07, No Iterations 0
ExecutionTime = 0 s  ClockTime = 0 s

Time = 0.1

DICPCG:  Solving for T, Initial residual = 0.177936, Final residual = 9.84857e-08, No Iterations 5
DICPCG:  Solving for T, Initial residual = 7.28702e-08, Final residual = 7.28702e-08, No Iterations 0
DICPCG:  Solving for T, Initial residual = 7.28702e-08, Final residual = 7.28702e-08, No Iterations 0
ExecutionTime = 0 s  ClockTime = 0 s

Time = 0.15

DICPCG:  Solving for T, Initial residual = 0.0884426, Final residual = 8.55474e-07, No Iterations 4
DICPCG:  Solving for T, Initial residual = 7.27127e-07, Final residual = 7.27127e-07, No Iterations 0
DICPCG:  Solving for T, Initial residual = 7.27127e-07, Final residual = 7.27127e-07, No Iterations 0
ExecutionTime = 0 s  ClockTime = 0 s

Time = 0.2

DICPCG:  Solving for T, Initial residual = 0.0557475, Final residual = 4.89854e-07, No Iterations 4
DICPCG:  Solving for T, Initial residual = 4.42092e-07, Final residual = 4.42092e-07, No Iterations 0
DICPCG:  Solving for T, Initial residual = 4.42092e-07, Final residual = 4.42092e-07, No Iterations 0
ExecutionTime = 0 s  ClockTime = 0 s

Time = 0.25

DICPCG:  Solving for T, Initial residual = 0.0400705, Final residual = 3.35905e-07, No Iterations 4
DICPCG:  Solving for T, Initial residual = 3.11344e-07, Final residual = 3.11344e-07, No Iterations 0
DICPCG:  Solving for T, Initial residual = 3.11344e-07, Final residual = 3.11344e-07, No Iterations 0
ExecutionTime = 0 s  ClockTime = 0 s

Time = 0.3

DICPCG:  Solving for T, Initial residual = 0.0312211, Final residual = 2.49633e-07, No Iterations 4
DICPCG:  Solving for T, Initial residual = 2.35674e-07, Final residual = 2.35674e-07, No Iterations 0
DICPCG:  Solving for T, Initial residual = 2.35674e-07, Final residual = 2.35674e-07, No Iterations 0
ExecutionTime = 0 s  ClockTime = 0 s

Time = 0.35

DICPCG:  Solving for T, Initial residual = 0.0257407, Final residual = 1.96656e-07, No Iterations 4
DICPCG:  Solving for T, Initial residual = 1.8789e-07, Final residual = 1.8789e-07, No Iterations 0
DICPCG:  Solving for T, Initial residual = 1.8789e-07, Final residual = 1.8789e-07, No Iterations 0
ExecutionTime = 0 s  ClockTime = 0 s

Time = 0.4

DICPCG:  Solving for T, Initial residual = 0.0219733, Final residual = 1.59306e-07, No Iterations 4
DICPCG:  Solving for T, Initial residual = 1.53473e-07, Final residual = 1.53473e-07, No Iterations 0
DICPCG:  Solving for T, Initial residual = 1.53473e-07, Final residual = 1.53473e-07, No Iterations 0
ExecutionTime = 0 s  ClockTime = 0 s

Time = 0.45

DICPCG:  Solving for T, Initial residual = 0.0192402, Final residual = 1.33899e-07, No Iterations 4
DICPCG:  Solving for T, Initial residual = 1.29448e-07, Final residual = 1.29448e-07, No Iterations 0
DICPCG:  Solving for T, Initial residual = 1.29448e-07, Final residual = 1.29448e-07, No Iterations 0
ExecutionTime = 0 s  ClockTime = 0 s

Time = 0.5

DICPCG:  Solving for T, Initial residual = 0.0171542, Final residual = 1.1415e-07, No Iterations 4
DICPCG:  Solving for T, Initial residual = 1.10866e-07, Final residual = 1.10866e-07, No Iterations 0
DICPCG:  Solving for T, Initial residual = 1.10866e-07, Final residual = 1.10866e-07, No Iterations 0
ExecutionTime = 0 s  ClockTime = 0 s

Time = 0.55

DICPCG:  Solving for T, Initial residual = 0.0155359, Final residual = 9.91054e-08, No Iterations 4
DICPCG:  Solving for T, Initial residual = 9.66056e-08, Final residual = 9.66056e-08, No Iterations 0
DICPCG:  Solving for T, Initial residual = 9.66056e-08, Final residual = 9.66056e-08, No Iterations 0
ExecutionTime = 0 s  ClockTime = 0 s

Time = 0.6

DICPCG:  Solving for T, Initial residual = 0.0142437, Final residual = 8.76182e-08, No Iterations 4
DICPCG:  Solving for T, Initial residual = 8.56597e-08, Final residual = 8.56597e-08, No Iterations 0
DICPCG:  Solving for T, Initial residual = 8.56597e-08, Final residual = 8.56597e-08, No Iterations 0
ExecutionTime = 0 s  ClockTime = 0 s

Time = 0.65

DICPCG:  Solving for T, Initial residual = 0.0131877, Final residual = 7.85963e-08, No Iterations 4
DICPCG:  Solving for T, Initial residual = 7.70251e-08, Final residual = 7.70251e-08, No Iterations 0
DICPCG:  Solving for T, Initial residual = 7.70251e-08, Final residual = 7.70251e-08, No Iterations 0
ExecutionTime = 0 s  ClockTime = 0 s

Time = 0.7

DICPCG:  Solving for T, Initial residual = 0.0123078, Final residual = 7.1653e-08, No Iterations 4
DICPCG:  Solving for T, Initial residual = 7.03636e-08, Final residual = 7.03636e-08, No Iterations 0
DICPCG:  Solving for T, Initial residual = 7.03636e-08, Final residual = 7.03636e-08, No Iterations 0
ExecutionTime = 0 s  ClockTime = 0 s

Time = 0.75

DICPCG:  Solving for T, Initial residual = 0.0115378, Final residual = 6.58112e-08, No Iterations 4
DICPCG:  Solving for T, Initial residual = 6.4736e-08, Final residual = 6.4736e-08, No Iterations 0
DICPCG:  Solving for T, Initial residual = 6.4736e-08, Final residual = 6.4736e-08, No Iterations 0
ExecutionTime = 0 s  ClockTime = 0 s

Time = 0.8

DICPCG:  Solving for T, Initial residual = 0.0108657, Final residual = 6.07968e-08, No Iterations 4
DICPCG:  Solving for T, Initial residual = 5.98256e-08, Final residual = 5.98256e-08, No Iterations 0
DICPCG:  Solving for T, Initial residual = 5.98256e-08, Final residual = 5.98256e-08, No Iterations 0
ExecutionTime = 0.02 s  ClockTime = 0 s

Time = 0.85

DICPCG:  Solving for T, Initial residual = 0.010272, Final residual = 5.63693e-08, No Iterations 4
DICPCG:  Solving for T, Initial residual = 5.55411e-08, Final residual = 5.55411e-08, No Iterations 0
DICPCG:  Solving for T, Initial residual = 5.55411e-08, Final residual = 5.55411e-08, No Iterations 0
ExecutionTime = 0.02 s  ClockTime = 0 s

Time = 0.9

DICPCG:  Solving for T, Initial residual = 0.00975259, Final residual = 5.25892e-08, No Iterations 4
DICPCG:  Solving for T, Initial residual = 5.18756e-08, Final residual = 5.18756e-08, No Iterations 0
DICPCG:  Solving for T, Initial residual = 5.18756e-08, Final residual = 5.18756e-08, No Iterations 0
ExecutionTime = 0.02 s  ClockTime = 0 s

Time = 0.95

DICPCG:  Solving for T, Initial residual = 0.00929439, Final residual = 4.93163e-08, No Iterations 4
DICPCG:  Solving for T, Initial residual = 4.86961e-08, Final residual = 4.86961e-08, No Iterations 0
DICPCG:  Solving for T, Initial residual = 4.86961e-08, Final residual = 4.86961e-08, No Iterations 0
ExecutionTime = 0.02 s  ClockTime = 0 s

Time = 1

DICPCG:  Solving for T, Initial residual = 0.00888715, Final residual = 4.64536e-08, No Iterations 4
DICPCG:  Solving for T, Initial residual = 4.59103e-08, Final residual = 4.59103e-08, No Iterations 0
DICPCG:  Solving for T, Initial residual = 4.59103e-08, Final residual = 4.59103e-08, No Iterations 0
ExecutionTime = 0.02 s  ClockTime = 0 s

runTime.value(): 1
snapshotsTime: 1
Time = 1.05

DICPCG:  Solving for T, Initial residual = 0.00852281, Final residual = 9.52436e-07, No Iterations 3
DICPCG:  Solving for T, Initial residual = 9.42042e-07, Final residual = 9.42042e-07, No Iterations 0
DICPCG:  Solving for T, Initial residual = 9.42042e-07, Final residual = 9.42042e-07, No Iterations 0
ExecutionTime = 0.02 s  ClockTime = 0 s

Time = 1.1

DICPCG:  Solving for T, Initial residual = 0.00819489, Final residual = 9.0087e-07, No Iterations 3
DICPCG:  Solving for T, Initial residual = 8.91671e-07, Final residual = 8.91671e-07, No Iterations 0
DICPCG:  Solving for T, Initial residual = 8.91671e-07, Final residual = 8.91671e-07, No Iterations 0
ExecutionTime = 0.02 s  ClockTime = 0 s

Time = 1.15

DICPCG:  Solving for T, Initial residual = 0.00789817, Final residual = 8.53726e-07, No Iterations 3
DICPCG:  Solving for T, Initial residual = 8.45548e-07, Final residual = 8.45548e-07, No Iterations 0
DICPCG:  Solving for T, Initial residual = 8.45548e-07, Final residual = 8.45548e-07, No Iterations 0
ExecutionTime = 0.02 s  ClockTime = 0 s

Time = 1.2

DICPCG:  Solving for T, Initial residual = 0.00762838, Final residual = 8.10709e-07, No Iterations 3
DICPCG:  Solving for T, Initial residual = 8.03404e-07, Final residual = 8.03404e-07, No Iterations 0
DICPCG:  Solving for T, Initial residual = 8.03404e-07, Final residual = 8.03404e-07, No Iterations 0
ExecutionTime = 0.02 s  ClockTime = 0 s

Time = 1.25

DICPCG:  Solving for T, Initial residual = 0.00738198, Final residual = 7.71744e-07, No Iterations 3
DICPCG:  Solving for T, Initial residual = 7.65189e-07, Final residual = 7.65189e-07, No Iterations 0
DICPCG:  Solving for T, Initial residual = 7.65189e-07, Final residual = 7.65189e-07, No Iterations 0
ExecutionTime = 0.02 s  ClockTime = 0 s

Time = 1.3

DICPCG:  Solving for T, Initial residual = 0.00714931, Final residual = 7.36037e-07, No Iterations 3
DICPCG:  Solving for T, Initial residual = 7.30471e-07, Final residual = 7.30471e-07, No Iterations 0
DICPCG:  Solving for T, Initial residual = 7.30471e-07, Final residual = 7.30471e-07, No Iterations 0
ExecutionTime = 0.02 s  ClockTime = 0 s

Time = 1.35

DICPCG:  Solving for T, Initial residual = 0.00693232, Final residual = 7.03347e-07, No Iterations 3
DICPCG:  Solving for T, Initial residual = 6.97717e-07, Final residual = 6.97717e-07, No Iterations 0
DICPCG:  Solving for T, Initial residual = 6.97717e-07, Final residual = 6.97717e-07, No Iterations 0
ExecutionTime = 0.02 s  ClockTime = 0 s

Time = 1.4

DICPCG:  Solving for T, Initial residual = 0.00672618, Final residual = 6.73541e-07, No Iterations 3
DICPCG:  Solving for T, Initial residual = 6.68431e-07, Final residual = 6.68431e-07, No Iterations 0
DICPCG:  Solving for T, Initial residual = 6.68431e-07, Final residual = 6.68431e-07, No Iterations 0
ExecutionTime = 0.02 s  ClockTime = 0 s

Time = 1.45

DICPCG:  Solving for T, Initial residual = 0.0065354, Final residual = 6.45776e-07, No Iterations 3
DICPCG:  Solving for T, Initial residual = 6.41125e-07, Final residual = 6.41125e-07, No Iterations 0
DICPCG:  Solving for T, Initial residual = 6.41125e-07, Final residual = 6.41125e-07, No Iterations 0
ExecutionTime = 0.02 s  ClockTime = 0 s

Time = 1.5

DICPCG:  Solving for T, Initial residual = 0.00635832, Final residual = 6.19895e-07, No Iterations 3
DICPCG:  Solving for T, Initial residual = 6.15651e-07, Final residual = 6.15651e-07, No Iterations 0
DICPCG:  Solving for T, Initial residual = 6.15651e-07, Final residual = 6.15651e-07, No Iterations 0
ExecutionTime = 0.02 s  ClockTime = 0 s

Time = 1.55

DICPCG:  Solving for T, Initial residual = 0.0061935, Final residual = 5.95662e-07, No Iterations 3
DICPCG:  Solving for T, Initial residual = 5.9178e-07, Final residual = 5.9178e-07, No Iterations 0
DICPCG:  Solving for T, Initial residual = 5.9178e-07, Final residual = 5.9178e-07, No Iterations 0
ExecutionTime = 0.02 s  ClockTime = 0 s

Time = 1.6

DICPCG:  Solving for T, Initial residual = 0.00603972, Final residual = 5.73028e-07, No Iterations 3
DICPCG:  Solving for T, Initial residual = 5.69468e-07, Final residual = 5.69468e-07, No Iterations 0
DICPCG:  Solving for T, Initial residual = 5.69468e-07, Final residual = 5.69468e-07, No Iterations 0
ExecutionTime = 0.02 s  ClockTime = 0 s

Time = 1.65

DICPCG:  Solving for T, Initial residual = 0.00589587, Final residual = 5.52027e-07, No Iterations 3
DICPCG:  Solving for T, Initial residual = 5.48754e-07, Final residual = 5.48754e-07, No Iterations 0
DICPCG:  Solving for T, Initial residual = 5.48754e-07, Final residual = 5.48754e-07, No Iterations 0
ExecutionTime = 0.02 s  ClockTime = 0 s

Time = 1.7

DICPCG:  Solving for T, Initial residual = 0.00576101, Final residual = 5.32927e-07, No Iterations 3
DICPCG:  Solving for T, Initial residual = 5.29908e-07, Final residual = 5.29908e-07, No Iterations 0
DICPCG:  Solving for T, Initial residual = 5.29908e-07, Final residual = 5.29908e-07, No Iterations 0
ExecutionTime = 0.02 s  ClockTime = 0 s

Time = 1.75

DICPCG:  Solving for T, Initial residual = 0.00563431, Final residual = 5.15525e-07, No Iterations 3
DICPCG:  Solving for T, Initial residual = 5.12732e-07, Final residual = 5.12732e-07, No Iterations 0
DICPCG:  Solving for T, Initial residual = 5.12732e-07, Final residual = 5.12732e-07, No Iterations 0
ExecutionTime = 0.02 s  ClockTime = 0 s

Time = 1.8

DICPCG:  Solving for T, Initial residual = 0.00551503, Final residual = 4.99486e-07, No Iterations 3
DICPCG:  Solving for T, Initial residual = 4.96895e-07, Final residual = 4.96895e-07, No Iterations 0
DICPCG:  Solving for T, Initial residual = 4.96895e-07, Final residual = 4.96895e-07, No Iterations 0
ExecutionTime = 0.02 s  ClockTime = 0 s

Time = 1.85

DICPCG:  Solving for T, Initial residual = 0.00540253, Final residual = 4.84268e-07, No Iterations 3
DICPCG:  Solving for T, Initial residual = 4.8186e-07, Final residual = 4.8186e-07, No Iterations 0
DICPCG:  Solving for T, Initial residual = 4.8186e-07, Final residual = 4.8186e-07, No Iterations 0
ExecutionTime = 0.02 s  ClockTime = 0 s

Time = 1.9

DICPCG:  Solving for T, Initial residual = 0.00529621, Final residual = 4.69827e-07, No Iterations 3
DICPCG:  Solving for T, Initial residual = 4.67586e-07, Final residual = 4.67586e-07, No Iterations 0
DICPCG:  Solving for T, Initial residual = 4.67586e-07, Final residual = 4.67586e-07, No Iterations 0
ExecutionTime = 0.02 s  ClockTime = 0 s

Time = 1.95

DICPCG:  Solving for T, Initial residual = 0.00519557, Final residual = 4.56472e-07, No Iterations 3
DICPCG:  Solving for T, Initial residual = 4.54382e-07, Final residual = 4.54382e-07, No Iterations 0
DICPCG:  Solving for T, Initial residual = 4.54382e-07, Final residual = 4.54382e-07, No Iterations 0
ExecutionTime = 0.03 s  ClockTime = 0 s

Time = 2

DICPCG:  Solving for T, Initial residual = 0.00510014, Final residual = 4.43909e-07, No Iterations 3
DICPCG:  Solving for T, Initial residual = 4.41955e-07, Final residual = 4.41955e-07, No Iterations 0
DICPCG:  Solving for T, Initial residual = 4.41955e-07, Final residual = 4.41955e-07, No Iterations 0
ExecutionTime = 0.03 s  ClockTime = 0 s

runTime.value(): 2
snapshotsTime: 2
Time = 2.05

DICPCG:  Solving for T, Initial residual = 0.00500952, Final residual = 4.31918e-07, No Iterations 3
DICPCG:  Solving for T, Initial residual = 4.3009e-07, Final residual = 4.3009e-07, No Iterations 0
DICPCG:  Solving for T, Initial residual = 4.3009e-07, Final residual = 4.3009e-07, No Iterations 0
ExecutionTime = 0.03 s  ClockTime = 0 s

Time = 2.1

DICPCG:  Solving for T, Initial residual = 0.00492331, Final residual = 4.2052e-07, No Iterations 3
DICPCG:  Solving for T, Initial residual = 4.18806e-07, Final residual = 4.18806e-07, No Iterations 0
DICPCG:  Solving for T, Initial residual = 4.18806e-07, Final residual = 4.18806e-07, No Iterations 0
ExecutionTime = 0.03 s  ClockTime = 0 s

Time = 2.15

DICPCG:  Solving for T, Initial residual = 0.00484119, Final residual = 4.09793e-07, No Iterations 3
DICPCG:  Solving for T, Initial residual = 4.08185e-07, Final residual = 4.08185e-07, No Iterations 0
DICPCG:  Solving for T, Initial residual = 4.08185e-07, Final residual = 4.08185e-07, No Iterations 0
ExecutionTime = 0.03 s  ClockTime = 0 s

Time = 2.2

DICPCG:  Solving for T, Initial residual = 0.00476176, Final residual = 3.99379e-07, No Iterations 3
DICPCG:  Solving for T, Initial residual = 3.97959e-07, Final residual = 3.97959e-07, No Iterations 0
DICPCG:  Solving for T, Initial residual = 3.97959e-07, Final residual = 3.97959e-07, No Iterations 0
ExecutionTime = 0.03 s  ClockTime = 0 s

Time = 2.25

DICPCG:  Solving for T, Initial residual = 0.00468437, Final residual = 3.89417e-07, No Iterations 3
DICPCG:  Solving for T, Initial residual = 3.88052e-07, Final residual = 3.88052e-07, No Iterations 0
DICPCG:  Solving for T, Initial residual = 3.88052e-07, Final residual = 3.88052e-07, No Iterations 0
ExecutionTime = 0.03 s  ClockTime = 0 s

Time = 2.3

DICPCG:  Solving for T, Initial residual = 0.00460892, Final residual = 3.79747e-07, No Iterations 3
DICPCG:  Solving for T, Initial residual = 3.78377e-07, Final residual = 3.78377e-07, No Iterations 0
DICPCG:  Solving for T, Initial residual = 3.78377e-07, Final residual = 3.78377e-07, No Iterations 0
ExecutionTime = 0.03 s  ClockTime = 0 s

Time = 2.35

DICPCG:  Solving for T, Initial residual = 0.00453565, Final residual = 3.70408e-07, No Iterations 3
DICPCG:  Solving for T, Initial residual = 3.6912e-07, Final residual = 3.6912e-07, No Iterations 0
DICPCG:  Solving for T, Initial residual = 3.6912e-07, Final residual = 3.6912e-07, No Iterations 0
ExecutionTime = 0.03 s  ClockTime = 0 s

Time = 2.4

DICPCG:  Solving for T, Initial residual = 0.00446547, Final residual = 3.61449e-07, No Iterations 3
DICPCG:  Solving for T, Initial residual = 3.60236e-07, Final residual = 3.60236e-07, No Iterations 0
DICPCG:  Solving for T, Initial residual = 3.60236e-07, Final residual = 3.60236e-07, No Iterations 0
ExecutionTime = 0.03 s  ClockTime = 0 s

Time = 2.45

DICPCG:  Solving for T, Initial residual = 0.00439817, Final residual = 3.52854e-07, No Iterations 3
DICPCG:  Solving for T, Initial residual = 3.51711e-07, Final residual = 3.51711e-07, No Iterations 0
DICPCG:  Solving for T, Initial residual = 3.51711e-07, Final residual = 3.51711e-07, No Iterations 0
ExecutionTime = 0.03 s  ClockTime = 0 s

Time = 2.5

DICPCG:  Solving for T, Initial residual = 0.00433355, Final residual = 3.44778e-07, No Iterations 3
DICPCG:  Solving for T, Initial residual = 3.437e-07, Final residual = 3.437e-07, No Iterations 0
DICPCG:  Solving for T, Initial residual = 3.437e-07, Final residual = 3.437e-07, No Iterations 0
ExecutionTime = 0.03 s  ClockTime = 0 s

Time = 2.55

DICPCG:  Solving for T, Initial residual = 0.00427143, Final residual = 3.37183e-07, No Iterations 3
DICPCG:  Solving for T, Initial residual = 3.36164e-07, Final residual = 3.36164e-07, No Iterations 0
DICPCG:  Solving for T, Initial residual = 3.36164e-07, Final residual = 3.36164e-07, No Iterations 0
ExecutionTime = 0.03 s  ClockTime = 0 s

Time = 2.6

DICPCG:  Solving for T, Initial residual = 0.00421166, Final residual = 3.29956e-07, No Iterations 3
DICPCG:  Solving for T, Initial residual = 3.28992e-07, Final residual = 3.28992e-07, No Iterations 0
DICPCG:  Solving for T, Initial residual = 3.28992e-07, Final residual = 3.28992e-07, No Iterations 0
ExecutionTime = 0.03 s  ClockTime = 0 s

Time = 2.65

DICPCG:  Solving for T, Initial residual = 0.00415409, Final residual = 3.2296e-07, No Iterations 3
DICPCG:  Solving for T, Initial residual = 3.22047e-07, Final residual = 3.22047e-07, No Iterations 0
DICPCG:  Solving for T, Initial residual = 3.22047e-07, Final residual = 3.22047e-07, No Iterations 0
ExecutionTime = 0.03 s  ClockTime = 0 s

Time = 2.7

DICPCG:  Solving for T, Initial residual = 0.00409859, Final residual = 3.16175e-07, No Iterations 3
DICPCG:  Solving for T, Initial residual = 3.1531e-07, Final residual = 3.1531e-07, No Iterations 0
DICPCG:  Solving for T, Initial residual = 3.1531e-07, Final residual = 3.1531e-07, No Iterations 0
ExecutionTime = 0.03 s  ClockTime = 0 s

Time = 2.75

DICPCG:  Solving for T, Initial residual = 0.00404501, Final residual = 3.09716e-07, No Iterations 3
DICPCG:  Solving for T, Initial residual = 3.08896e-07, Final residual = 3.08896e-07, No Iterations 0
DICPCG:  Solving for T, Initial residual = 3.08896e-07, Final residual = 3.08896e-07, No Iterations 0
ExecutionTime = 0.03 s  ClockTime = 0 s

Time = 2.8

DICPCG:  Solving for T, Initial residual = 0.00399326, Final residual = 3.03524e-07, No Iterations 3
DICPCG:  Solving for T, Initial residual = 3.02746e-07, Final residual = 3.02746e-07, No Iterations 0
DICPCG:  Solving for T, Initial residual = 3.02746e-07, Final residual = 3.02746e-07, No Iterations 0
ExecutionTime = 0.03 s  ClockTime = 0 s

Time = 2.85

DICPCG:  Solving for T, Initial residual = 0.00394321, Final residual = 2.97519e-07, No Iterations 3
DICPCG:  Solving for T, Initial residual = 2.9678e-07, Final residual = 2.9678e-07, No Iterations 0
DICPCG:  Solving for T, Initial residual = 2.9678e-07, Final residual = 2.9678e-07, No Iterations 0
ExecutionTime = 0.03 s  ClockTime = 0 s

Time = 2.9

DICPCG:  Solving for T, Initial residual = 0.00389478, Final residual = 2.91713e-07, No Iterations 3
DICPCG:  Solving for T, Initial residual = 2.91011e-07, Final residual = 2.91011e-07, No Iterations 0
DICPCG:  Solving for T, Initial residual = 2.91011e-07, Final residual = 2.91011e-07, No Iterations 0
ExecutionTime = 0.03 s  ClockTime = 0 s

Time = 2.95

DICPCG:  Solving for T, Initial residual = 0.00384786, Final residual = 2.86075e-07, No Iterations 3
DICPCG:  Solving for T, Initial residual = 2.85408e-07, Final residual = 2.85408e-07, No Iterations 0
DICPCG:  Solving for T, Initial residual = 2.85408e-07, Final residual = 2.85408e-07, No Iterations 0
ExecutionTime = 0.03 s  ClockTime = 0 s

Time = 3

DICPCG:  Solving for T, Initial residual = 0.00380238, Final residual = 2.80657e-07, No Iterations 3
DICPCG:  Solving for T, Initial residual = 2.80022e-07, Final residual = 2.80022e-07, No Iterations 0
DICPCG:  Solving for T, Initial residual = 2.80022e-07, Final residual = 2.80022e-07, No Iterations 0
ExecutionTime = 0.03 s  ClockTime = 0 s

Time = 3.05

DICPCG:  Solving for T, Initial residual = 0.00375825, Final residual = 2.75556e-07, No Iterations 3
DICPCG:  Solving for T, Initial residual = 2.74951e-07, Final residual = 2.74951e-07, No Iterations 0
DICPCG:  Solving for T, Initial residual = 2.74951e-07, Final residual = 2.74951e-07, No Iterations 0
ExecutionTime = 0.03 s  ClockTime = 0 s

runTime.value(): 3.05
snapshotsTime: 3
Time = 3.1

DICPCG:  Solving for T, Initial residual = 0.00371539, Final residual = 2.70635e-07, No Iterations 3
DICPCG:  Solving for T, Initial residual = 2.70059e-07, Final residual = 2.70059e-07, No Iterations 0
DICPCG:  Solving for T, Initial residual = 2.70059e-07, Final residual = 2.70059e-07, No Iterations 0
ExecutionTime = 0.04 s  ClockTime = 0 s

Time = 3.15

DICPCG:  Solving for T, Initial residual = 0.00367375, Final residual = 2.6595e-07, No Iterations 3
DICPCG:  Solving for T, Initial residual = 2.654e-07, Final residual = 2.654e-07, No Iterations 0
DICPCG:  Solving for T, Initial residual = 2.654e-07, Final residual = 2.654e-07, No Iterations 0
ExecutionTime = 0.04 s  ClockTime = 0 s

Time = 3.2

DICPCG:  Solving for T, Initial residual = 0.00363325, Final residual = 2.61377e-07, No Iterations 3
DICPCG:  Solving for T, Initial residual = 2.60852e-07, Final residual = 2.60852e-07, No Iterations 0
DICPCG:  Solving for T, Initial residual = 2.60852e-07, Final residual = 2.60852e-07, No Iterations 0
ExecutionTime = 0.04 s  ClockTime = 0 s

Time = 3.25

DICPCG:  Solving for T, Initial residual = 0.00359383, Final residual = 2.56946e-07, No Iterations 3
DICPCG:  Solving for T, Initial residual = 2.56444e-07, Final residual = 2.56444e-07, No Iterations 0
DICPCG:  Solving for T, Initial residual = 2.56444e-07, Final residual = 2.56444e-07, No Iterations 0
ExecutionTime = 0.04 s  ClockTime = 0 s

Time = 3.3

DICPCG:  Solving for T, Initial residual = 0.00355544, Final residual = 2.52788e-07, No Iterations 3
DICPCG:  Solving for T, Initial residual = 2.52309e-07, Final residual = 2.52309e-07, No Iterations 0
DICPCG:  Solving for T, Initial residual = 2.52309e-07, Final residual = 2.52309e-07, No Iterations 0
ExecutionTime = 0.04 s  ClockTime = 0 s

Time = 3.35

DICPCG:  Solving for T, Initial residual = 0.00351802, Final residual = 2.48738e-07, No Iterations 3
DICPCG:  Solving for T, Initial residual = 2.48279e-07, Final residual = 2.48279e-07, No Iterations 0
DICPCG:  Solving for T, Initial residual = 2.48279e-07, Final residual = 2.48279e-07, No Iterations 0
ExecutionTime = 0.04 s  ClockTime = 0 s

Time = 3.4

DICPCG:  Solving for T, Initial residual = 0.00348153, Final residual = 2.44778e-07, No Iterations 3
DICPCG:  Solving for T, Initial residual = 2.44339e-07, Final residual = 2.44339e-07, No Iterations 0
DICPCG:  Solving for T, Initial residual = 2.44339e-07, Final residual = 2.44339e-07, No Iterations 0
ExecutionTime = 0.04 s  ClockTime = 0 s

Time = 3.45

DICPCG:  Solving for T, Initial residual = 0.00344592, Final residual = 2.40905e-07, No Iterations 3
DICPCG:  Solving for T, Initial residual = 2.40485e-07, Final residual = 2.40485e-07, No Iterations 0
DICPCG:  Solving for T, Initial residual = 2.40485e-07, Final residual = 2.40485e-07, No Iterations 0
ExecutionTime = 0.04 s  ClockTime = 0 s

Time = 3.5

DICPCG:  Solving for T, Initial residual = 0.00341115, Final residual = 2.37195e-07, No Iterations 3
DICPCG:  Solving for T, Initial residual = 2.36793e-07, Final residual = 2.36793e-07, No Iterations 0
DICPCG:  Solving for T, Initial residual = 2.36793e-07, Final residual = 2.36793e-07, No Iterations 0
ExecutionTime = 0.04 s  ClockTime = 0 s

Time = 3.55

DICPCG:  Solving for T, Initial residual = 0.00337717, Final residual = 2.336e-07, No Iterations 3
DICPCG:  Solving for T, Initial residual = 2.33214e-07, Final residual = 2.33214e-07, No Iterations 0
DICPCG:  Solving for T, Initial residual = 2.33214e-07, Final residual = 2.33214e-07, No Iterations 0
ExecutionTime = 0.04 s  ClockTime = 0 s

Time = 3.6

DICPCG:  Solving for T, Initial residual = 0.00334395, Final residual = 2.30114e-07, No Iterations 3
DICPCG:  Solving for T, Initial residual = 2.29744e-07, Final residual = 2.29744e-07, No Iterations 0
DICPCG:  Solving for T, Initial residual = 2.29744e-07, Final residual = 2.29744e-07, No Iterations 0
ExecutionTime = 0.04 s  ClockTime = 0 s

Time = 3.65

DICPCG:  Solving for T, Initial residual = 0.00331146, Final residual = 2.26725e-07, No Iterations 3
DICPCG:  Solving for T, Initial residual = 2.26371e-07, Final residual = 2.26371e-07, No Iterations 0
DICPCG:  Solving for T, Initial residual = 2.26371e-07, Final residual = 2.26371e-07, No Iterations 0
ExecutionTime = 0.04 s  ClockTime = 0 s

Time = 3.7

DICPCG:  Solving for T, Initial residual = 0.00327966, Final residual = 2.23424e-07, No Iterations 3
DICPCG:  Solving for T, Initial residual = 2.23083e-07, Final residual = 2.23083e-07, No Iterations 0
DICPCG:  Solving for T, Initial residual = 2.23083e-07, Final residual = 2.23083e-07, No Iterations 0
ExecutionTime = 0.04 s  ClockTime = 0 s

Time = 3.75

DICPCG:  Solving for T, Initial residual = 0.00324852, Final residual = 2.202e-07, No Iterations 3
DICPCG:  Solving for T, Initial residual = 2.19873e-07, Final residual = 2.19873e-07, No Iterations 0
DICPCG:  Solving for T, Initial residual = 2.19873e-07, Final residual = 2.19873e-07, No Iterations 0
ExecutionTime = 0.04 s  ClockTime = 0 s

Time = 3.8

DICPCG:  Solving for T, Initial residual = 0.003218, Final residual = 2.1709e-07, No Iterations 3
DICPCG:  Solving for T, Initial residual = 2.16776e-07, Final residual = 2.16776e-07, No Iterations 0
DICPCG:  Solving for T, Initial residual = 2.16776e-07, Final residual = 2.16776e-07, No Iterations 0
ExecutionTime = 0.04 s  ClockTime = 0 s

Time = 3.85

DICPCG:  Solving for T, Initial residual = 0.00318752, Final residual = 2.14077e-07, No Iterations 3
DICPCG:  Solving for T, Initial residual = 2.13814e-07, Final residual = 2.13814e-07, No Iterations 0
DICPCG:  Solving for T, Initial residual = 2.13814e-07, Final residual = 2.13814e-07, No Iterations 0
ExecutionTime = 0.04 s  ClockTime = 0 s

Time = 3.9

DICPCG:  Solving for T, Initial residual = 0.0031574, Final residual = 2.11111e-07, No Iterations 3
DICPCG:  Solving for T, Initial residual = 2.10861e-07, Final residual = 2.10861e-07, No Iterations 0
DICPCG:  Solving for T, Initial residual = 2.10861e-07, Final residual = 2.10861e-07, No Iterations 0
ExecutionTime = 0.04 s  ClockTime = 0 s

Time = 3.95

DICPCG:  Solving for T, Initial residual = 0.00312748, Final residual = 2.08204e-07, No Iterations 3
DICPCG:  Solving for T, Initial residual = 2.07937e-07, Final residual = 2.07937e-07, No Iterations 0
DICPCG:  Solving for T, Initial residual = 2.07937e-07, Final residual = 2.07937e-07, No Iterations 0
ExecutionTime = 0.04 s  ClockTime = 0 s

Time = 4

DICPCG:  Solving for T, Initial residual = 0.00309772, Final residual = 2.05388e-07, No Iterations 3
DICPCG:  Solving for T, Initial residual = 2.05132e-07, Final residual = 2.05132e-07, No Iterations 0
DICPCG:  Solving for T, Initial residual = 2.05132e-07, Final residual = 2.05132e-07, No Iterations 0
ExecutionTime = 0.04 s  ClockTime = 0 s

Time = 4.05

DICPCG:  Solving for T, Initial residual = 0.00306852, Final residual = 2.02659e-07, No Iterations 3
DICPCG:  Solving for T, Initial residual = 2.02413e-07, Final residual = 2.02413e-07, No Iterations 0
DICPCG:  Solving for T, Initial residual = 2.02413e-07, Final residual = 2.02413e-07, No Iterations 0
ExecutionTime = 0.04 s  ClockTime = 0 s

runTime.value(): 4.05
snapshotsTime: 4
Time = 4.1

DICPCG:  Solving for T, Initial residual = 0.00303986, Final residual = 1.99992e-07, No Iterations 3
DICPCG:  Solving for T, Initial residual = 1.99757e-07, Final residual = 1.99757e-07, No Iterations 0
DICPCG:  Solving for T, Initial residual = 1.99757e-07, Final residual = 1.99757e-07, No Iterations 0
ExecutionTime = 0.04 s  ClockTime = 0 s

Time = 4.15

DICPCG:  Solving for T, Initial residual = 0.00301172, Final residual = 1.97383e-07, No Iterations 3
DICPCG:  Solving for T, Initial residual = 1.97157e-07, Final residual = 1.97157e-07, No Iterations 0
DICPCG:  Solving for T, Initial residual = 1.97157e-07, Final residual = 1.97157e-07, No Iterations 0
ExecutionTime = 0.04 s  ClockTime = 0 s

Time = 4.2

DICPCG:  Solving for T, Initial residual = 0.00298407, Final residual = 1.94839e-07, No Iterations 3
DICPCG:  Solving for T, Initial residual = 1.94622e-07, Final residual = 1.94622e-07, No Iterations 0
DICPCG:  Solving for T, Initial residual = 1.94622e-07, Final residual = 1.94622e-07, No Iterations 0
ExecutionTime = 0.05 s  ClockTime = 0 s

Time = 4.25

DICPCG:  Solving for T, Initial residual = 0.00295691, Final residual = 1.92388e-07, No Iterations 3
DICPCG:  Solving for T, Initial residual = 1.92178e-07, Final residual = 1.92178e-07, No Iterations 0
DICPCG:  Solving for T, Initial residual = 1.92178e-07, Final residual = 1.92178e-07, No Iterations 0
ExecutionTime = 0.05 s  ClockTime = 0 s

Time = 4.3

DICPCG:  Solving for T, Initial residual = 0.0029302, Final residual = 1.90009e-07, No Iterations 3
DICPCG:  Solving for T, Initial residual = 1.89808e-07, Final residual = 1.89808e-07, No Iterations 0
DICPCG:  Solving for T, Initial residual = 1.89808e-07, Final residual = 1.89808e-07, No Iterations 0
ExecutionTime = 0.05 s  ClockTime = 0 s

Time = 4.35

DICPCG:  Solving for T, Initial residual = 0.00290394, Final residual = 1.87682e-07, No Iterations 3
DICPCG:  Solving for T, Initial residual = 1.87488e-07, Final residual = 1.87488e-07, No Iterations 0
DICPCG:  Solving for T, Initial residual = 1.87488e-07, Final residual = 1.87488e-07, No Iterations 0
ExecutionTime = 0.05 s  ClockTime = 0 s

Time = 4.4

DICPCG:  Solving for T, Initial residual = 0.0028781, Final residual = 1.85405e-07, No Iterations 3
DICPCG:  Solving for T, Initial residual = 1.85218e-07, Final residual = 1.85218e-07, No Iterations 0
DICPCG:  Solving for T, Initial residual = 1.85218e-07, Final residual = 1.85218e-07, No Iterations 0
ExecutionTime = 0.05 s  ClockTime = 0 s

Time = 4.45

DICPCG:  Solving for T, Initial residual = 0.00285268, Final residual = 1.83218e-07, No Iterations 3
DICPCG:  Solving for T, Initial residual = 1.83038e-07, Final residual = 1.83038e-07, No Iterations 0
DICPCG:  Solving for T, Initial residual = 1.83038e-07, Final residual = 1.83038e-07, No Iterations 0
ExecutionTime = 0.05 s  ClockTime = 0 s

Time = 4.5

DICPCG:  Solving for T, Initial residual = 0.00282765, Final residual = 1.81085e-07, No Iterations 3
DICPCG:  Solving for T, Initial residual = 1.80912e-07, Final residual = 1.80912e-07, No Iterations 0
DICPCG:  Solving for T, Initial residual = 1.80912e-07, Final residual = 1.80912e-07, No Iterations 0
ExecutionTime = 0.05 s  ClockTime = 0 s

Time = 4.55

DICPCG:  Solving for T, Initial residual = 0.00280301, Final residual = 1.79042e-07, No Iterations 3
DICPCG:  Solving for T, Initial residual = 1.78876e-07, Final residual = 1.78876e-07, No Iterations 0
DICPCG:  Solving for T, Initial residual = 1.78876e-07, Final residual = 1.78876e-07, No Iterations 0
ExecutionTime = 0.05 s  ClockTime = 0 s

Time = 4.6

DICPCG:  Solving for T, Initial residual = 0.00277873, Final residual = 1.7708e-07, No Iterations 3
DICPCG:  Solving for T, Initial residual = 1.7692e-07, Final residual = 1.7692e-07, No Iterations 0
DICPCG:  Solving for T, Initial residual = 1.7692e-07, Final residual = 1.7692e-07, No Iterations 0
ExecutionTime = 0.05 s  ClockTime = 0 s

Time = 4.65

DICPCG:  Solving for T, Initial residual = 0.00275482, Final residual = 1.75168e-07, No Iterations 3
DICPCG:  Solving for T, Initial residual = 1.75013e-07, Final residual = 1.75013e-07, No Iterations 0
DICPCG:  Solving for T, Initial residual = 1.75013e-07, Final residual = 1.75013e-07, No Iterations 0
ExecutionTime = 0.05 s  ClockTime = 0 s

Time = 4.7

DICPCG:  Solving for T, Initial residual = 0.00273125, Final residual = 1.73288e-07, No Iterations 3
DICPCG:  Solving for T, Initial residual = 1.73139e-07, Final residual = 1.73139e-07, No Iterations 0
DICPCG:  Solving for T, Initial residual = 1.73139e-07, Final residual = 1.73139e-07, No Iterations 0
ExecutionTime = 0.05 s  ClockTime = 0 s

Time = 4.75

DICPCG:  Solving for T, Initial residual = 0.00270801, Final residual = 1.7144e-07, No Iterations 3
DICPCG:  Solving for T, Initial residual = 1.71296e-07, Final residual = 1.71296e-07, No Iterations 0
DICPCG:  Solving for T, Initial residual = 1.71296e-07, Final residual = 1.71296e-07, No Iterations 0
ExecutionTime = 0.05 s  ClockTime = 0 s

Time = 4.8

DICPCG:  Solving for T, Initial residual = 0.0026851, Final residual = 1.69631e-07, No Iterations 3
DICPCG:  Solving for T, Initial residual = 1.69492e-07, Final residual = 1.69492e-07, No Iterations 0
DICPCG:  Solving for T, Initial residual = 1.69492e-07, Final residual = 1.69492e-07, No Iterations 0
ExecutionTime = 0.05 s  ClockTime = 0 s

Time = 4.85

DICPCG:  Solving for T, Initial residual = 0.0026625, Final residual = 1.67865e-07, No Iterations 3
DICPCG:  Solving for T, Initial residual = 1.67731e-07, Final residual = 1.67731e-07, No Iterations 0
DICPCG:  Solving for T, Initial residual = 1.67731e-07, Final residual = 1.67731e-07, No Iterations 0
ExecutionTime = 0.05 s  ClockTime = 0 s

Time = 4.9

DICPCG:  Solving for T, Initial residual = 0.00264021, Final residual = 1.66129e-07, No Iterations 3
DICPCG:  Solving for T, Initial residual = 1.65999e-07, Final residual = 1.65999e-07, No Iterations 0
DICPCG:  Solving for T, Initial residual = 1.65999e-07, Final residual = 1.65999e-07, No Iterations 0
ExecutionTime = 0.05 s  ClockTime = 0 s

Time = 4.95

DICPCG:  Solving for T, Initial residual = 0.00261821, Final residual = 1.64446e-07, No Iterations 3
DICPCG:  Solving for T, Initial residual = 1.64321e-07, Final residual = 1.64321e-07, No Iterations 0
DICPCG:  Solving for T, Initial residual = 1.64321e-07, Final residual = 1.64321e-07, No Iterations 0
ExecutionTime = 0.05 s  ClockTime = 0 s

Time = 5

DICPCG:  Solving for T, Initial residual = 0.0025965, Final residual = 1.62805e-07, No Iterations 3
DICPCG:  Solving for T, Initial residual = 1.62684e-07, Final residual = 1.62684e-07, No Iterations 0
DICPCG:  Solving for T, Initial residual = 1.62684e-07, Final residual = 1.62684e-07, No Iterations 0
ExecutionTime = 0.05 s  ClockTime = 0 s

Time = 5.05

DICPCG:  Solving for T, Initial residual = 0.00257506, Final residual = 1.6119e-07, No Iterations 3
DICPCG:  Solving for T, Initial residual = 1.61073e-07, Final residual = 1.61073e-07, No Iterations 0
DICPCG:  Solving for T, Initial residual = 1.61073e-07, Final residual = 1.61073e-07, No Iterations 0
ExecutionTime = 0.05 s  ClockTime = 0 s

runTime.value(): 5.05
snapshotsTime: 5
Time = 5.1

DICPCG:  Solving for T, Initial residual = 0.0025539, Final residual = 1.59626e-07, No Iterations 3
DICPCG:  Solving for T, Initial residual = 1.59513e-07, Final residual = 1.59513e-07, No Iterations 0
DICPCG:  Solving for T, Initial residual = 1.59513e-07, Final residual = 1.59513e-07, No Iterations 0
ExecutionTime = 0.05 s  ClockTime = 0 s

Time = 5.15

DICPCG:  Solving for T, Initial residual = 0.00253299, Final residual = 1.58102e-07, No Iterations 3
DICPCG:  Solving for T, Initial residual = 1.57993e-07, Final residual = 1.57993e-07, No Iterations 0
DICPCG:  Solving for T, Initial residual = 1.57993e-07, Final residual = 1.57993e-07, No Iterations 0
ExecutionTime = 0.05 s  ClockTime = 0 s

Time = 5.2

DICPCG:  Solving for T, Initial residual = 0.00251235, Final residual = 1.56611e-07, No Iterations 3
DICPCG:  Solving for T, Initial residual = 1.56505e-07, Final residual = 1.56505e-07, No Iterations 0
DICPCG:  Solving for T, Initial residual = 1.56505e-07, Final residual = 1.56505e-07, No Iterations 0
ExecutionTime = 0.05 s  ClockTime = 0 s

Time = 5.25

DICPCG:  Solving for T, Initial residual = 0.00249195, Final residual = 1.55146e-07, No Iterations 3
DICPCG:  Solving for T, Initial residual = 1.55044e-07, Final residual = 1.55044e-07, No Iterations 0
DICPCG:  Solving for T, Initial residual = 1.55044e-07, Final residual = 1.55044e-07, No Iterations 0
ExecutionTime = 0.05 s  ClockTime = 0 s

Time = 5.3

DICPCG:  Solving for T, Initial residual = 0.00247179, Final residual = 1.53726e-07, No Iterations 3
DICPCG:  Solving for T, Initial residual = 1.53626e-07, Final residual = 1.53626e-07, No Iterations 0
DICPCG:  Solving for T, Initial residual = 1.53626e-07, Final residual = 1.53626e-07, No Iterations 0
ExecutionTime = 0.05 s  ClockTime = 0 s

Time = 5.35

DICPCG:  Solving for T, Initial residual = 0.00245187, Final residual = 1.52367e-07, No Iterations 3
DICPCG:  Solving for T, Initial residual = 1.52271e-07, Final residual = 1.52271e-07, No Iterations 0
DICPCG:  Solving for T, Initial residual = 1.52271e-07, Final residual = 1.52271e-07, No Iterations 0
ExecutionTime = 0.06 s  ClockTime = 0 s

Time = 5.4

DICPCG:  Solving for T, Initial residual = 0.00243218, Final residual = 1.51052e-07, No Iterations 3
DICPCG:  Solving for T, Initial residual = 1.50959e-07, Final residual = 1.50959e-07, No Iterations 0
DICPCG:  Solving for T, Initial residual = 1.50959e-07, Final residual = 1.50959e-07, No Iterations 0
ExecutionTime = 0.06 s  ClockTime = 0 s

Time = 5.45

DICPCG:  Solving for T, Initial residual = 0.00241271, Final residual = 1.49755e-07, No Iterations 3
DICPCG:  Solving for T, Initial residual = 1.49665e-07, Final residual = 1.49665e-07, No Iterations 0
DICPCG:  Solving for T, Initial residual = 1.49665e-07, Final residual = 1.49665e-07, No Iterations 0
ExecutionTime = 0.06 s  ClockTime = 0 s

Time = 5.5

DICPCG:  Solving for T, Initial residual = 0.00239346, Final residual = 1.48477e-07, No Iterations 3
DICPCG:  Solving for T, Initial residual = 1.4839e-07, Final residual = 1.4839e-07, No Iterations 0
DICPCG:  Solving for T, Initial residual = 1.4839e-07, Final residual = 1.4839e-07, No Iterations 0
ExecutionTime = 0.06 s  ClockTime = 0 s

Time = 5.55

DICPCG:  Solving for T, Initial residual = 0.00237443, Final residual = 1.47218e-07, No Iterations 3
DICPCG:  Solving for T, Initial residual = 1.47133e-07, Final residual = 1.47133e-07, No Iterations 0
DICPCG:  Solving for T, Initial residual = 1.47133e-07, Final residual = 1.47133e-07, No Iterations 0
ExecutionTime = 0.06 s  ClockTime = 0 s

Time = 5.6

DICPCG:  Solving for T, Initial residual = 0.0023556, Final residual = 1.45974e-07, No Iterations 3
DICPCG:  Solving for T, Initial residual = 1.45892e-07, Final residual = 1.45892e-07, No Iterations 0
DICPCG:  Solving for T, Initial residual = 1.45892e-07, Final residual = 1.45892e-07, No Iterations 0
ExecutionTime = 0.06 s  ClockTime = 0 s

Time = 5.65

DICPCG:  Solving for T, Initial residual = 0.00233697, Final residual = 1.44745e-07, No Iterations 3
DICPCG:  Solving for T, Initial residual = 1.44665e-07, Final residual = 1.44665e-07, No Iterations 0
DICPCG:  Solving for T, Initial residual = 1.44665e-07, Final residual = 1.44665e-07, No Iterations 0
ExecutionTime = 0.06 s  ClockTime = 0 s

Time = 5.7

DICPCG:  Solving for T, Initial residual = 0.00231854, Final residual = 1.43531e-07, No Iterations 3
DICPCG:  Solving for T, Initial residual = 1.43454e-07, Final residual = 1.43454e-07, No Iterations 0
DICPCG:  Solving for T, Initial residual = 1.43454e-07, Final residual = 1.43454e-07, No Iterations 0
ExecutionTime = 0.06 s  ClockTime = 0 s

Time = 5.75

DICPCG:  Solving for T, Initial residual = 0.00230031, Final residual = 1.42335e-07, No Iterations 3
DICPCG:  Solving for T, Initial residual = 1.4226e-07, Final residual = 1.4226e-07, No Iterations 0
DICPCG:  Solving for T, Initial residual = 1.4226e-07, Final residual = 1.4226e-07, No Iterations 0
ExecutionTime = 0.06 s  ClockTime = 0 s

Time = 5.8

DICPCG:  Solving for T, Initial residual = 0.00228227, Final residual = 1.41161e-07, No Iterations 3
DICPCG:  Solving for T, Initial residual = 1.41088e-07, Final residual = 1.41088e-07, No Iterations 0
DICPCG:  Solving for T, Initial residual = 1.41088e-07, Final residual = 1.41088e-07, No Iterations 0
ExecutionTime = 0.06 s  ClockTime = 0 s

Time = 5.85

DICPCG:  Solving for T, Initial residual = 0.00226441, Final residual = 1.40004e-07, No Iterations 3
DICPCG:  Solving for T, Initial residual = 1.39933e-07, Final residual = 1.39933e-07, No Iterations 0
DICPCG:  Solving for T, Initial residual = 1.39933e-07, Final residual = 1.39933e-07, No Iterations 0
ExecutionTime = 0.06 s  ClockTime = 0 s

Time = 5.9

DICPCG:  Solving for T, Initial residual = 0.00224673, Final residual = 1.3886e-07, No Iterations 3
DICPCG:  Solving for T, Initial residual = 1.38791e-07, Final residual = 1.38791e-07, No Iterations 0
DICPCG:  Solving for T, Initial residual = 1.38791e-07, Final residual = 1.38791e-07, No Iterations 0
ExecutionTime = 0.06 s  ClockTime = 0 s

Time = 5.95

DICPCG:  Solving for T, Initial residual = 0.00222924, Final residual = 1.37728e-07, No Iterations 3
DICPCG:  Solving for T, Initial residual = 1.37662e-07, Final residual = 1.37662e-07, No Iterations 0
DICPCG:  Solving for T, Initial residual = 1.37662e-07, Final residual = 1.37662e-07, No Iterations 0
ExecutionTime = 0.06 s  ClockTime = 0 s

Time = 6

DICPCG:  Solving for T, Initial residual = 0.00221191, Final residual = 1.36611e-07, No Iterations 3
DICPCG:  Solving for T, Initial residual = 1.36547e-07, Final residual = 1.36547e-07, No Iterations 0
DICPCG:  Solving for T, Initial residual = 1.36547e-07, Final residual = 1.36547e-07, No Iterations 0
ExecutionTime = 0.06 s  ClockTime = 0 s

Time = 6.05

DICPCG:  Solving for T, Initial residual = 0.00219476, Final residual = 1.35515e-07, No Iterations 3
DICPCG:  Solving for T, Initial residual = 1.35452e-07, Final residual = 1.35452e-07, No Iterations 0
DICPCG:  Solving for T, Initial residual = 1.35452e-07, Final residual = 1.35452e-07, No Iterations 0
ExecutionTime = 0.06 s  ClockTime = 0 s

runTime.value(): 6.05
snapshotsTime: 6
Time = 6.1

DICPCG:  Solving for T, Initial residual = 0.00217777, Final residual = 1.34432e-07, No Iterations 3
DICPCG:  Solving for T, Initial residual = 1.34371e-07, Final residual = 1.34371e-07, No Iterations 0
DICPCG:  Solving for T, Initial residual = 1.34371e-07, Final residual = 1.34371e-07, No Iterations 0
ExecutionTime = 0.06 s  ClockTime = 0 s

Time = 6.15

DICPCG:  Solving for T, Initial residual = 0.00216095, Final residual = 1.3336e-07, No Iterations 3
DICPCG:  Solving for T, Initial residual = 1.33301e-07, Final residual = 1.33301e-07, No Iterations 0
DICPCG:  Solving for T, Initial residual = 1.33301e-07, Final residual = 1.33301e-07, No Iterations 0
ExecutionTime = 0.06 s  ClockTime = 0 s

Time = 6.2

DICPCG:  Solving for T, Initial residual = 0.00214429, Final residual = 1.323e-07, No Iterations 3
DICPCG:  Solving for T, Initial residual = 1.32242e-07, Final residual = 1.32242e-07, No Iterations 0
DICPCG:  Solving for T, Initial residual = 1.32242e-07, Final residual = 1.32242e-07, No Iterations 0
ExecutionTime = 0.06 s  ClockTime = 0 s

Time = 6.25

DICPCG:  Solving for T, Initial residual = 0.00212779, Final residual = 1.3125e-07, No Iterations 3
DICPCG:  Solving for T, Initial residual = 1.31194e-07, Final residual = 1.31194e-07, No Iterations 0
DICPCG:  Solving for T, Initial residual = 1.31194e-07, Final residual = 1.31194e-07, No Iterations 0
ExecutionTime = 0.06 s  ClockTime = 0 s

Time = 6.3

DICPCG:  Solving for T, Initial residual = 0.00211145, Final residual = 1.30219e-07, No Iterations 3
DICPCG:  Solving for T, Initial residual = 1.30165e-07, Final residual = 1.30165e-07, No Iterations 0
DICPCG:  Solving for T, Initial residual = 1.30165e-07, Final residual = 1.30165e-07, No Iterations 0
ExecutionTime = 0.06 s  ClockTime = 0 s

Time = 6.35

DICPCG:  Solving for T, Initial residual = 0.00209525, Final residual = 1.29203e-07, No Iterations 3
DICPCG:  Solving for T, Initial residual = 1.2915e-07, Final residual = 1.2915e-07, No Iterations 0
DICPCG:  Solving for T, Initial residual = 1.2915e-07, Final residual = 1.2915e-07, No Iterations 0
ExecutionTime = 0.06 s  ClockTime = 0 s

Time = 6.4

DICPCG:  Solving for T, Initial residual = 0.00207921, Final residual = 1.28203e-07, No Iterations 3
DICPCG:  Solving for T, Initial residual = 1.28152e-07, Final residual = 1.28152e-07, No Iterations 0
DICPCG:  Solving for T, Initial residual = 1.28152e-07, Final residual = 1.28152e-07, No Iterations 0
ExecutionTime = 0.06 s  ClockTime = 0 s

Time = 6.45

DICPCG:  Solving for T, Initial residual = 0.00206331, Final residual = 1.27215e-07, No Iterations 3
DICPCG:  Solving for T, Initial residual = 1.27165e-07, Final residual = 1.27165e-07, No Iterations 0
DICPCG:  Solving for T, Initial residual = 1.27165e-07, Final residual = 1.27165e-07, No Iterations 0
ExecutionTime = 0.06 s  ClockTime = 0 s

Time = 6.5

DICPCG:  Solving for T, Initial residual = 0.00204756, Final residual = 1.26236e-07, No Iterations 3
DICPCG:  Solving for T, Initial residual = 1.26187e-07, Final residual = 1.26187e-07, No Iterations 0
DICPCG:  Solving for T, Initial residual = 1.26187e-07, Final residual = 1.26187e-07, No Iterations 0
ExecutionTime = 0.07 s  ClockTime = 0 s

Time = 6.55

DICPCG:  Solving for T, Initial residual = 0.00203195, Final residual = 1.25266e-07, No Iterations 3
DICPCG:  Solving for T, Initial residual = 1.25219e-07, Final residual = 1.25219e-07, No Iterations 0
DICPCG:  Solving for T, Initial residual = 1.25219e-07, Final residual = 1.25219e-07, No Iterations 0
ExecutionTime = 0.07 s  ClockTime = 0 s

Time = 6.6

DICPCG:  Solving for T, Initial residual = 0.00201648, Final residual = 1.2431e-07, No Iterations 3
DICPCG:  Solving for T, Initial residual = 1.24264e-07, Final residual = 1.24264e-07, No Iterations 0
DICPCG:  Solving for T, Initial residual = 1.24264e-07, Final residual = 1.24264e-07, No Iterations 0
ExecutionTime = 0.07 s  ClockTime = 0 s

Time = 6.65

DICPCG:  Solving for T, Initial residual = 0.00200115, Final residual = 1.23367e-07, No Iterations 3
DICPCG:  Solving for T, Initial residual = 1.23322e-07, Final residual = 1.23322e-07, No Iterations 0
DICPCG:  Solving for T, Initial residual = 1.23322e-07, Final residual = 1.23322e-07, No Iterations 0
ExecutionTime = 0.07 s  ClockTime = 0 s

Time = 6.7

DICPCG:  Solving for T, Initial residual = 0.00198595, Final residual = 1.22433e-07, No Iterations 3
DICPCG:  Solving for T, Initial residual = 1.22389e-07, Final residual = 1.22389e-07, No Iterations 0
DICPCG:  Solving for T, Initial residual = 1.22389e-07, Final residual = 1.22389e-07, No Iterations 0
ExecutionTime = 0.07 s  ClockTime = 0 s

Time = 6.75

DICPCG:  Solving for T, Initial residual = 0.00197089, Final residual = 1.2151e-07, No Iterations 3
DICPCG:  Solving for T, Initial residual = 1.21467e-07, Final residual = 1.21467e-07, No Iterations 0
DICPCG:  Solving for T, Initial residual = 1.21467e-07, Final residual = 1.21467e-07, No Iterations 0
ExecutionTime = 0.07 s  ClockTime = 0 s

Time = 6.8

DICPCG:  Solving for T, Initial residual = 0.00195596, Final residual = 1.20595e-07, No Iterations 3
DICPCG:  Solving for T, Initial residual = 1.20554e-07, Final residual = 1.20554e-07, No Iterations 0
DICPCG:  Solving for T, Initial residual = 1.20554e-07, Final residual = 1.20554e-07, No Iterations 0
ExecutionTime = 0.07 s  ClockTime = 0 s

Time = 6.85

DICPCG:  Solving for T, Initial residual = 0.00194115, Final residual = 1.19689e-07, No Iterations 3
DICPCG:  Solving for T, Initial residual = 1.19649e-07, Final residual = 1.19649e-07, No Iterations 0
DICPCG:  Solving for T, Initial residual = 1.19649e-07, Final residual = 1.19649e-07, No Iterations 0
ExecutionTime = 0.07 s  ClockTime = 0 s

Time = 6.9

DICPCG:  Solving for T, Initial residual = 0.00192648, Final residual = 1.18793e-07, No Iterations 3
DICPCG:  Solving for T, Initial residual = 1.18754e-07, Final residual = 1.18754e-07, No Iterations 0
DICPCG:  Solving for T, Initial residual = 1.18754e-07, Final residual = 1.18754e-07, No Iterations 0
ExecutionTime = 0.07 s  ClockTime = 0 s

Time = 6.95

DICPCG:  Solving for T, Initial residual = 0.00191193, Final residual = 1.17912e-07, No Iterations 3
DICPCG:  Solving for T, Initial residual = 1.17873e-07, Final residual = 1.17873e-07, No Iterations 0
DICPCG:  Solving for T, Initial residual = 1.17873e-07, Final residual = 1.17873e-07, No Iterations 0
ExecutionTime = 0.07 s  ClockTime = 0 s

Time = 7

DICPCG:  Solving for T, Initial residual = 0.0018975, Final residual = 1.17038e-07, No Iterations 3
DICPCG:  Solving for T, Initial residual = 1.17001e-07, Final residual = 1.17001e-07, No Iterations 0
DICPCG:  Solving for T, Initial residual = 1.17001e-07, Final residual = 1.17001e-07, No Iterations 0
ExecutionTime = 0.07 s  ClockTime = 0 s

Time = 7.05

DICPCG:  Solving for T, Initial residual = 0.0018832, Final residual = 1.16172e-07, No Iterations 3
DICPCG:  Solving for T, Initial residual = 1.16136e-07, Final residual = 1.16136e-07, No Iterations 0
DICPCG:  Solving for T, Initial residual = 1.16136e-07, Final residual = 1.16136e-07, No Iterations 0
ExecutionTime = 0.07 s  ClockTime = 0 s

runTime.value(): 7.05
snapshotsTime: 7
Time = 7.1

DICPCG:  Solving for T, Initial residual = 0.00186886, Final residual = 1.15303e-07, No Iterations 3
DICPCG:  Solving for T, Initial residual = 1.15277e-07, Final residual = 1.15277e-07, No Iterations 0
DICPCG:  Solving for T, Initial residual = 1.15277e-07, Final residual = 1.15277e-07, No Iterations 0
ExecutionTime = 0.07 s  ClockTime = 0 s

Time = 7.15

DICPCG:  Solving for T, Initial residual = 0.0018546, Final residual = 1.14438e-07, No Iterations 3
DICPCG:  Solving for T, Initial residual = 1.14424e-07, Final residual = 1.14424e-07, No Iterations 0
DICPCG:  Solving for T, Initial residual = 1.14424e-07, Final residual = 1.14424e-07, No Iterations 0
ExecutionTime = 0.07 s  ClockTime = 0 s

Time = 7.2

DICPCG:  Solving for T, Initial residual = 0.00184044, Final residual = 1.1358e-07, No Iterations 3
DICPCG:  Solving for T, Initial residual = 1.13554e-07, Final residual = 1.13554e-07, No Iterations 0
DICPCG:  Solving for T, Initial residual = 1.13554e-07, Final residual = 1.13554e-07, No Iterations 0
ExecutionTime = 0.07 s  ClockTime = 0 s

Time = 7.25

DICPCG:  Solving for T, Initial residual = 0.00182622, Final residual = 1.12717e-07, No Iterations 3
DICPCG:  Solving for T, Initial residual = 1.12692e-07, Final residual = 1.12692e-07, No Iterations 0
DICPCG:  Solving for T, Initial residual = 1.12692e-07, Final residual = 1.12692e-07, No Iterations 0
ExecutionTime = 0.07 s  ClockTime = 0 s

Time = 7.3

DICPCG:  Solving for T, Initial residual = 0.00181212, Final residual = 1.11861e-07, No Iterations 3
DICPCG:  Solving for T, Initial residual = 1.11837e-07, Final residual = 1.11837e-07, No Iterations 0
DICPCG:  Solving for T, Initial residual = 1.11837e-07, Final residual = 1.11837e-07, No Iterations 0
ExecutionTime = 0.07 s  ClockTime = 0 s

Time = 7.35

DICPCG:  Solving for T, Initial residual = 0.00179815, Final residual = 1.11012e-07, No Iterations 3
DICPCG:  Solving for T, Initial residual = 1.10989e-07, Final residual = 1.10989e-07, No Iterations 0
DICPCG:  Solving for T, Initial residual = 1.10989e-07, Final residual = 1.10989e-07, No Iterations 0
ExecutionTime = 0.07 s  ClockTime = 0 s

Time = 7.4

DICPCG:  Solving for T, Initial residual = 0.0017843, Final residual = 1.1017e-07, No Iterations 3
DICPCG:  Solving for T, Initial residual = 1.10148e-07, Final residual = 1.10148e-07, No Iterations 0
DICPCG:  Solving for T, Initial residual = 1.10148e-07, Final residual = 1.10148e-07, No Iterations 0
ExecutionTime = 0.07 s  ClockTime = 0 s

Time = 7.45

DICPCG:  Solving for T, Initial residual = 0.00177056, Final residual = 1.09335e-07, No Iterations 3
DICPCG:  Solving for T, Initial residual = 1.09313e-07, Final residual = 1.09313e-07, No Iterations 0
DICPCG:  Solving for T, Initial residual = 1.09313e-07, Final residual = 1.09313e-07, No Iterations 0
ExecutionTime = 0.07 s  ClockTime = 0 s

Time = 7.5

DICPCG:  Solving for T, Initial residual = 0.00175695, Final residual = 1.08506e-07, No Iterations 3
DICPCG:  Solving for T, Initial residual = 1.08485e-07, Final residual = 1.08485e-07, No Iterations 0
DICPCG:  Solving for T, Initial residual = 1.08485e-07, Final residual = 1.08485e-07, No Iterations 0
ExecutionTime = 0.07 s  ClockTime = 0 s

Time = 7.55

DICPCG:  Solving for T, Initial residual = 0.00174345, Final residual = 1.07685e-07, No Iterations 3
DICPCG:  Solving for T, Initial residual = 1.07664e-07, Final residual = 1.07664e-07, No Iterations 0
DICPCG:  Solving for T, Initial residual = 1.07664e-07, Final residual = 1.07664e-07, No Iterations 0
ExecutionTime = 0.07 s  ClockTime = 0 s

Time = 7.6

DICPCG:  Solving for T, Initial residual = 0.00173006, Final residual = 1.0687e-07, No Iterations 3
DICPCG:  Solving for T, Initial residual = 1.0685e-07, Final residual = 1.0685e-07, No Iterations 0
DICPCG:  Solving for T, Initial residual = 1.0685e-07, Final residual = 1.0685e-07, No Iterations 0
ExecutionTime = 0.07 s  ClockTime = 0 s

Time = 7.65

DICPCG:  Solving for T, Initial residual = 0.00171679, Final residual = 1.06061e-07, No Iterations 3
DICPCG:  Solving for T, Initial residual = 1.06042e-07, Final residual = 1.06042e-07, No Iterations 0
DICPCG:  Solving for T, Initial residual = 1.06042e-07, Final residual = 1.06042e-07, No Iterations 0
ExecutionTime = 0.08 s  ClockTime = 0 s

Time = 7.7

DICPCG:  Solving for T, Initial residual = 0.00170362, Final residual = 1.05259e-07, No Iterations 3
DICPCG:  Solving for T, Initial residual = 1.05241e-07, Final residual = 1.05241e-07, No Iterations 0
DICPCG:  Solving for T, Initial residual = 1.05241e-07, Final residual = 1.05241e-07, No Iterations 0
ExecutionTime = 0.08 s  ClockTime = 0 s

Time = 7.75

DICPCG:  Solving for T, Initial residual = 0.00169057, Final residual = 1.04464e-07, No Iterations 3
DICPCG:  Solving for T, Initial residual = 1.04445e-07, Final residual = 1.04445e-07, No Iterations 0
DICPCG:  Solving for T, Initial residual = 1.04445e-07, Final residual = 1.04445e-07, No Iterations 0
ExecutionTime = 0.08 s  ClockTime = 0 s

Time = 7.8

DICPCG:  Solving for T, Initial residual = 0.00167763, Final residual = 1.03674e-07, No Iterations 3
DICPCG:  Solving for T, Initial residual = 1.03657e-07, Final residual = 1.03657e-07, No Iterations 0
DICPCG:  Solving for T, Initial residual = 1.03657e-07, Final residual = 1.03657e-07, No Iterations 0
ExecutionTime = 0.08 s  ClockTime = 0 s

Time = 7.85

DICPCG:  Solving for T, Initial residual = 0.00166479, Final residual = 1.02895e-07, No Iterations 3
DICPCG:  Solving for T, Initial residual = 1.02878e-07, Final residual = 1.02878e-07, No Iterations 0
DICPCG:  Solving for T, Initial residual = 1.02878e-07, Final residual = 1.02878e-07, No Iterations 0
ExecutionTime = 0.08 s  ClockTime = 0 s

Time = 7.9

DICPCG:  Solving for T, Initial residual = 0.00165206, Final residual = 1.02126e-07, No Iterations 3
DICPCG:  Solving for T, Initial residual = 1.02109e-07, Final residual = 1.02109e-07, No Iterations 0
DICPCG:  Solving for T, Initial residual = 1.02109e-07, Final residual = 1.02109e-07, No Iterations 0
ExecutionTime = 0.08 s  ClockTime = 0 s

Time = 7.95

DICPCG:  Solving for T, Initial residual = 0.00163944, Final residual = 1.01362e-07, No Iterations 3
DICPCG:  Solving for T, Initial residual = 1.01346e-07, Final residual = 1.01346e-07, No Iterations 0
DICPCG:  Solving for T, Initial residual = 1.01346e-07, Final residual = 1.01346e-07, No Iterations 0
ExecutionTime = 0.08 s  ClockTime = 0 s

Time = 8

DICPCG:  Solving for T, Initial residual = 0.00162692, Final residual = 1.00604e-07, No Iterations 3
DICPCG:  Solving for T, Initial residual = 1.00588e-07, Final residual = 1.00588e-07, No Iterations 0
DICPCG:  Solving for T, Initial residual = 1.00588e-07, Final residual = 1.00588e-07, No Iterations 0
ExecutionTime = 0.08 s  ClockTime = 0 s

Time = 8.05

DICPCG:  Solving for T, Initial residual = 0.0016145, Final residual = 9.98523e-08, No Iterations 3
DICPCG:  Solving for T, Initial residual = 9.98369e-08, Final residual = 9.98369e-08, No Iterations 0
DICPCG:  Solving for T, Initial residual = 9.98369e-08, Final residual = 9.98369e-08, No Iterations 0
ExecutionTime = 0.08 s  ClockTime = 0 s

runTime.value(): 8.05
snapshotsTime: 8
Time = 8.1

DICPCG:  Solving for T, Initial residual = 0.00160218, Final residual = 9.9106e-08, No Iterations 3
DICPCG:  Solving for T, Initial residual = 9.9091e-08, Final residual = 9.9091e-08, No Iterations 0
DICPCG:  Solving for T, Initial residual = 9.9091e-08, Final residual = 9.9091e-08, No Iterations 0
ExecutionTime = 0.08 s  ClockTime = 0 s

Time = 8.15

DICPCG:  Solving for T, Initial residual = 0.00158996, Final residual = 9.83654e-08, No Iterations 3
DICPCG:  Solving for T, Initial residual = 9.83508e-08, Final residual = 9.83508e-08, No Iterations 0
DICPCG:  Solving for T, Initial residual = 9.83508e-08, Final residual = 9.83508e-08, No Iterations 0
ExecutionTime = 0.08 s  ClockTime = 0 s

Time = 8.2

DICPCG:  Solving for T, Initial residual = 0.00157785, Final residual = 9.76303e-08, No Iterations 3
DICPCG:  Solving for T, Initial residual = 9.76161e-08, Final residual = 9.76161e-08, No Iterations 0
DICPCG:  Solving for T, Initial residual = 9.76161e-08, Final residual = 9.76161e-08, No Iterations 0
ExecutionTime = 0.08 s  ClockTime = 0 s

Time = 8.25

DICPCG:  Solving for T, Initial residual = 0.00156583, Final residual = 9.69007e-08, No Iterations 3
DICPCG:  Solving for T, Initial residual = 9.68869e-08, Final residual = 9.68869e-08, No Iterations 0
DICPCG:  Solving for T, Initial residual = 9.68869e-08, Final residual = 9.68869e-08, No Iterations 0
ExecutionTime = 0.08 s  ClockTime = 0 s

Time = 8.3

DICPCG:  Solving for T, Initial residual = 0.0015539, Final residual = 9.61767e-08, No Iterations 3
DICPCG:  Solving for T, Initial residual = 9.61632e-08, Final residual = 9.61632e-08, No Iterations 0
DICPCG:  Solving for T, Initial residual = 9.61632e-08, Final residual = 9.61632e-08, No Iterations 0
ExecutionTime = 0.08 s  ClockTime = 0 s

Time = 8.35

DICPCG:  Solving for T, Initial residual = 0.00154208, Final residual = 9.54581e-08, No Iterations 3
DICPCG:  Solving for T, Initial residual = 9.5445e-08, Final residual = 9.5445e-08, No Iterations 0
DICPCG:  Solving for T, Initial residual = 9.5445e-08, Final residual = 9.5445e-08, No Iterations 0
ExecutionTime = 0.08 s  ClockTime = 0 s

Time = 8.4

DICPCG:  Solving for T, Initial residual = 0.00153035, Final residual = 9.47448e-08, No Iterations 3
DICPCG:  Solving for T, Initial residual = 9.47321e-08, Final residual = 9.47321e-08, No Iterations 0
DICPCG:  Solving for T, Initial residual = 9.47321e-08, Final residual = 9.47321e-08, No Iterations 0
ExecutionTime = 0.08 s  ClockTime = 0 s

Time = 8.45

DICPCG:  Solving for T, Initial residual = 0.00151871, Final residual = 9.4037e-08, No Iterations 3
DICPCG:  Solving for T, Initial residual = 9.40246e-08, Final residual = 9.40246e-08, No Iterations 0
DICPCG:  Solving for T, Initial residual = 9.40246e-08, Final residual = 9.40246e-08, No Iterations 0
ExecutionTime = 0.08 s  ClockTime = 0 s

Time = 8.5

DICPCG:  Solving for T, Initial residual = 0.00150716, Final residual = 9.33344e-08, No Iterations 3
DICPCG:  Solving for T, Initial residual = 9.33223e-08, Final residual = 9.33223e-08, No Iterations 0
DICPCG:  Solving for T, Initial residual = 9.33223e-08, Final residual = 9.33223e-08, No Iterations 0
ExecutionTime = 0.08 s  ClockTime = 0 s

Time = 8.55

DICPCG:  Solving for T, Initial residual = 0.00149571, Final residual = 9.26371e-08, No Iterations 3
DICPCG:  Solving for T, Initial residual = 9.26253e-08, Final residual = 9.26253e-08, No Iterations 0
DICPCG:  Solving for T, Initial residual = 9.26253e-08, Final residual = 9.26253e-08, No Iterations 0
ExecutionTime = 0.08 s  ClockTime = 0 s

Time = 8.6

DICPCG:  Solving for T, Initial residual = 0.00148435, Final residual = 9.1945e-08, No Iterations 3
DICPCG:  Solving for T, Initial residual = 9.19335e-08, Final residual = 9.19335e-08, No Iterations 0
DICPCG:  Solving for T, Initial residual = 9.19335e-08, Final residual = 9.19335e-08, No Iterations 0
ExecutionTime = 0.08 s  ClockTime = 0 s

Time = 8.65

DICPCG:  Solving for T, Initial residual = 0.00147308, Final residual = 9.1258e-08, No Iterations 3
DICPCG:  Solving for T, Initial residual = 9.12469e-08, Final residual = 9.12469e-08, No Iterations 0
DICPCG:  Solving for T, Initial residual = 9.12469e-08, Final residual = 9.12469e-08, No Iterations 0
ExecutionTime = 0.08 s  ClockTime = 0 s

Time = 8.7

DICPCG:  Solving for T, Initial residual = 0.0014619, Final residual = 9.05762e-08, No Iterations 3
DICPCG:  Solving for T, Initial residual = 9.05653e-08, Final residual = 9.05653e-08, No Iterations 0
DICPCG:  Solving for T, Initial residual = 9.05653e-08, Final residual = 9.05653e-08, No Iterations 0
ExecutionTime = 0.08 s  ClockTime = 0 s

Time = 8.75

DICPCG:  Solving for T, Initial residual = 0.0014508, Final residual = 8.98995e-08, No Iterations 3
DICPCG:  Solving for T, Initial residual = 8.98889e-08, Final residual = 8.98889e-08, No Iterations 0
DICPCG:  Solving for T, Initial residual = 8.98889e-08, Final residual = 8.98889e-08, No Iterations 0
ExecutionTime = 0.08 s  ClockTime = 0 s

Time = 8.8

DICPCG:  Solving for T, Initial residual = 0.0014398, Final residual = 8.92278e-08, No Iterations 3
DICPCG:  Solving for T, Initial residual = 8.92174e-08, Final residual = 8.92174e-08, No Iterations 0
DICPCG:  Solving for T, Initial residual = 8.92174e-08, Final residual = 8.92174e-08, No Iterations 0
ExecutionTime = 0.09 s  ClockTime = 0 s

Time = 8.85

DICPCG:  Solving for T, Initial residual = 0.00142888, Final residual = 8.85615e-08, No Iterations 3
DICPCG:  Solving for T, Initial residual = 8.85515e-08, Final residual = 8.85515e-08, No Iterations 0
DICPCG:  Solving for T, Initial residual = 8.85515e-08, Final residual = 8.85515e-08, No Iterations 0
ExecutionTime = 0.09 s  ClockTime = 0 s

Time = 8.9

DICPCG:  Solving for T, Initial residual = 0.00141804, Final residual = 8.79012e-08, No Iterations 3
DICPCG:  Solving for T, Initial residual = 8.78914e-08, Final residual = 8.78914e-08, No Iterations 0
DICPCG:  Solving for T, Initial residual = 8.78914e-08, Final residual = 8.78914e-08, No Iterations 0
ExecutionTime = 0.09 s  ClockTime = 0 s

Time = 8.95

DICPCG:  Solving for T, Initial residual = 0.00140729, Final residual = 8.72457e-08, No Iterations 3
DICPCG:  Solving for T, Initial residual = 8.72361e-08, Final residual = 8.72361e-08, No Iterations 0
DICPCG:  Solving for T, Initial residual = 8.72361e-08, Final residual = 8.72361e-08, No Iterations 0
ExecutionTime = 0.09 s  ClockTime = 0 s

Time = 9

DICPCG:  Solving for T, Initial residual = 0.00139663, Final residual = 8.6595e-08, No Iterations 3
DICPCG:  Solving for T, Initial residual = 8.65857e-08, Final residual = 8.65857e-08, No Iterations 0
DICPCG:  Solving for T, Initial residual = 8.65857e-08, Final residual = 8.65857e-08, No Iterations 0
ExecutionTime = 0.09 s  ClockTime = 0 s

Time = 9.05

DICPCG:  Solving for T, Initial residual = 0.00138605, Final residual = 8.59491e-08, No Iterations 3
DICPCG:  Solving for T, Initial residual = 8.594e-08, Final residual = 8.594e-08, No Iterations 0
DICPCG:  Solving for T, Initial residual = 8.594e-08, Final residual = 8.594e-08, No Iterations 0
ExecutionTime = 0.09 s  ClockTime = 0 s

runTime.value(): 9.05
snapshotsTime: 9
Time = 9.1

DICPCG:  Solving for T, Initial residual = 0.00137555, Final residual = 8.5308e-08, No Iterations 3
DICPCG:  Solving for T, Initial residual = 8.52991e-08, Final residual = 8.52991e-08, No Iterations 0
DICPCG:  Solving for T, Initial residual = 8.52991e-08, Final residual = 8.52991e-08, No Iterations 0
ExecutionTime = 0.09 s  ClockTime = 0 s

Time = 9.15

DICPCG:  Solving for T, Initial residual = 0.00136513, Final residual = 8.46715e-08, No Iterations 3
DICPCG:  Solving for T, Initial residual = 8.46629e-08, Final residual = 8.46629e-08, No Iterations 0
DICPCG:  Solving for T, Initial residual = 8.46629e-08, Final residual = 8.46629e-08, No Iterations 0
ExecutionTime = 0.09 s  ClockTime = 0 s

Time = 9.2

DICPCG:  Solving for T, Initial residual = 0.0013548, Final residual = 8.40398e-08, No Iterations 3
DICPCG:  Solving for T, Initial residual = 8.40314e-08, Final residual = 8.40314e-08, No Iterations 0
DICPCG:  Solving for T, Initial residual = 8.40314e-08, Final residual = 8.40314e-08, No Iterations 0
ExecutionTime = 0.09 s  ClockTime = 0 s

Time = 9.25

DICPCG:  Solving for T, Initial residual = 0.00134454, Final residual = 8.34127e-08, No Iterations 3
DICPCG:  Solving for T, Initial residual = 8.34044e-08, Final residual = 8.34044e-08, No Iterations 0
DICPCG:  Solving for T, Initial residual = 8.34044e-08, Final residual = 8.34044e-08, No Iterations 0
ExecutionTime = 0.09 s  ClockTime = 0 s

Time = 9.3

DICPCG:  Solving for T, Initial residual = 0.00133436, Final residual = 8.27902e-08, No Iterations 3
DICPCG:  Solving for T, Initial residual = 8.27821e-08, Final residual = 8.27821e-08, No Iterations 0
DICPCG:  Solving for T, Initial residual = 8.27821e-08, Final residual = 8.27821e-08, No Iterations 0
ExecutionTime = 0.09 s  ClockTime = 0 s

Time = 9.35

DICPCG:  Solving for T, Initial residual = 0.00132427, Final residual = 8.21722e-08, No Iterations 3
DICPCG:  Solving for T, Initial residual = 8.21644e-08, Final residual = 8.21644e-08, No Iterations 0
DICPCG:  Solving for T, Initial residual = 8.21644e-08, Final residual = 8.21644e-08, No Iterations 0
ExecutionTime = 0.09 s  ClockTime = 0 s

Time = 9.4

DICPCG:  Solving for T, Initial residual = 0.00131425, Final residual = 8.15588e-08, No Iterations 3
DICPCG:  Solving for T, Initial residual = 8.15512e-08, Final residual = 8.15512e-08, No Iterations 0
DICPCG:  Solving for T, Initial residual = 8.15512e-08, Final residual = 8.15512e-08, No Iterations 0
ExecutionTime = 0.09 s  ClockTime = 0 s

Time = 9.45

DICPCG:  Solving for T, Initial residual = 0.00130431, Final residual = 8.09499e-08, No Iterations 3
DICPCG:  Solving for T, Initial residual = 8.09424e-08, Final residual = 8.09424e-08, No Iterations 0
DICPCG:  Solving for T, Initial residual = 8.09424e-08, Final residual = 8.09424e-08, No Iterations 0
ExecutionTime = 0.09 s  ClockTime = 0 s

Time = 9.5

DICPCG:  Solving for T, Initial residual = 0.00129444, Final residual = 8.03455e-08, No Iterations 3
DICPCG:  Solving for T, Initial residual = 8.03382e-08, Final residual = 8.03382e-08, No Iterations 0
DICPCG:  Solving for T, Initial residual = 8.03382e-08, Final residual = 8.03382e-08, No Iterations 0
ExecutionTime = 0.09 s  ClockTime = 0 s

Time = 9.55

DICPCG:  Solving for T, Initial residual = 0.00128465, Final residual = 7.97454e-08, No Iterations 3
DICPCG:  Solving for T, Initial residual = 7.97383e-08, Final residual = 7.97383e-08, No Iterations 0
DICPCG:  Solving for T, Initial residual = 7.97383e-08, Final residual = 7.97383e-08, No Iterations 0
ExecutionTime = 0.09 s  ClockTime = 0 s

Time = 9.6

DICPCG:  Solving for T, Initial residual = 0.00127494, Final residual = 7.91498e-08, No Iterations 3
DICPCG:  Solving for T, Initial residual = 7.91429e-08, Final residual = 7.91429e-08, No Iterations 0
DICPCG:  Solving for T, Initial residual = 7.91429e-08, Final residual = 7.91429e-08, No Iterations 0
ExecutionTime = 0.09 s  ClockTime = 0 s

Time = 9.65

DICPCG:  Solving for T, Initial residual = 0.0012653, Final residual = 7.85586e-08, No Iterations 3
DICPCG:  Solving for T, Initial residual = 7.85518e-08, Final residual = 7.85518e-08, No Iterations 0
DICPCG:  Solving for T, Initial residual = 7.85518e-08, Final residual = 7.85518e-08, No Iterations 0
ExecutionTime = 0.09 s  ClockTime = 0 s

Time = 9.7

DICPCG:  Solving for T, Initial residual = 0.00125574, Final residual = 7.79717e-08, No Iterations 3
DICPCG:  Solving for T, Initial residual = 7.79651e-08, Final residual = 7.79651e-08, No Iterations 0
DICPCG:  Solving for T, Initial residual = 7.79651e-08, Final residual = 7.79651e-08, No Iterations 0
ExecutionTime = 0.09 s  ClockTime = 0 s

Time = 9.75

DICPCG:  Solving for T, Initial residual = 0.00124624, Final residual = 7.73891e-08, No Iterations 3
DICPCG:  Solving for T, Initial residual = 7.73826e-08, Final residual = 7.73826e-08, No Iterations 0
DICPCG:  Solving for T, Initial residual = 7.73826e-08, Final residual = 7.73826e-08, No Iterations 0
ExecutionTime = 0.09 s  ClockTime = 0 s

Time = 9.8

DICPCG:  Solving for T, Initial residual = 0.00123683, Final residual = 7.68108e-08, No Iterations 3
DICPCG:  Solving for T, Initial residual = 7.68045e-08, Final residual = 7.68045e-08, No Iterations 0
DICPCG:  Solving for T, Initial residual = 7.68045e-08, Final residual = 7.68045e-08, No Iterations 0
ExecutionTime = 0.09 s  ClockTime = 0 s

Time = 9.85

DICPCG:  Solving for T, Initial residual = 0.00122748, Final residual = 7.62367e-08, No Iterations 3
DICPCG:  Solving for T, Initial residual = 7.62305e-08, Final residual = 7.62305e-08, No Iterations 0
DICPCG:  Solving for T, Initial residual = 7.62305e-08, Final residual = 7.62305e-08, No Iterations 0
ExecutionTime = 0.09 s  ClockTime = 0 s

Time = 9.9

DICPCG:  Solving for T, Initial residual = 0.0012182, Final residual = 7.56668e-08, No Iterations 3
DICPCG:  Solving for T, Initial residual = 7.56608e-08, Final residual = 7.56608e-08, No Iterations 0
DICPCG:  Solving for T, Initial residual = 7.56608e-08, Final residual = 7.56608e-08, No Iterations 0
ExecutionTime = 0.09 s  ClockTime = 0 s

Time = 9.95

DICPCG:  Solving for T, Initial residual = 0.001209, Final residual = 7.51011e-08, No Iterations 3
DICPCG:  Solving for T, Initial residual = 7.50952e-08, Final residual = 7.50952e-08, No Iterations 0
DICPCG:  Solving for T, Initial residual = 7.50952e-08, Final residual = 7.50952e-08, No Iterations 0
ExecutionTime = 0.1 s  ClockTime = 0 s

Time = 10

DICPCG:  Solving for T, Initial residual = 0.00119987, Final residual = 7.45396e-08, No Iterations 3
DICPCG:  Solving for T, Initial residual = 7.45338e-08, Final residual = 7.45338e-08, No Iterations 0
DICPCG:  Solving for T, Initial residual = 7.45338e-08, Final residual = 7.45338e-08, No Iterations 0
ExecutionTime = 0.1 s  ClockTime = 0 s

runTime.value(): 10
snapshotsTime: 10
Time = 10.05

DICPCG:  Solving for T, Initial residual = 0.0011908, Final residual = 7.39821e-08, No Iterations 3
DICPCG:  Solving for T, Initial residual = 7.39765e-08, Final residual = 7.39765e-08, No Iterations 0
DICPCG:  Solving for T, Initial residual = 7.39765e-08, Final residual = 7.39765e-08, No Iterations 0
ExecutionTime = 0.1 s  ClockTime = 0 s

Time = 10.1

DICPCG:  Solving for T, Initial residual = 0.00118181, Final residual = 7.34288e-08, No Iterations 3
DICPCG:  Solving for T, Initial residual = 7.34233e-08, Final residual = 7.34233e-08, No Iterations 0
DICPCG:  Solving for T, Initial residual = 7.34233e-08, Final residual = 7.34233e-08, No Iterations 0
ExecutionTime = 0.1 s  ClockTime = 0 s

Time = 10.15

DICPCG:  Solving for T, Initial residual = 0.00117288, Final residual = 7.28795e-08, No Iterations 3
DICPCG:  Solving for T, Initial residual = 7.28741e-08, Final residual = 7.28741e-08, No Iterations 0
DICPCG:  Solving for T, Initial residual = 7.28741e-08, Final residual = 7.28741e-08, No Iterations 0
ExecutionTime = 0.1 s  ClockTime = 0 s

Time = 10.2

DICPCG:  Solving for T, Initial residual = 0.00116402, Final residual = 7.23342e-08, No Iterations 3
DICPCG:  Solving for T, Initial residual = 7.2329e-08, Final residual = 7.2329e-08, No Iterations 0
DICPCG:  Solving for T, Initial residual = 7.2329e-08, Final residual = 7.2329e-08, No Iterations 0
ExecutionTime = 0.1 s  ClockTime = 0 s

Time = 10.25

DICPCG:  Solving for T, Initial residual = 0.00115523, Final residual = 7.1793e-08, No Iterations 3
DICPCG:  Solving for T, Initial residual = 7.17878e-08, Final residual = 7.17878e-08, No Iterations 0
DICPCG:  Solving for T, Initial residual = 7.17878e-08, Final residual = 7.17878e-08, No Iterations 0
ExecutionTime = 0.1 s  ClockTime = 0 s

Time = 10.3

DICPCG:  Solving for T, Initial residual = 0.00114651, Final residual = 7.12557e-08, No Iterations 3
DICPCG:  Solving for T, Initial residual = 7.12507e-08, Final residual = 7.12507e-08, No Iterations 0
DICPCG:  Solving for T, Initial residual = 7.12507e-08, Final residual = 7.12507e-08, No Iterations 0
ExecutionTime = 0.1 s  ClockTime = 0 s

Time = 10.35

DICPCG:  Solving for T, Initial residual = 0.00113785, Final residual = 7.07224e-08, No Iterations 3
DICPCG:  Solving for T, Initial residual = 7.07174e-08, Final residual = 7.07174e-08, No Iterations 0
DICPCG:  Solving for T, Initial residual = 7.07174e-08, Final residual = 7.07174e-08, No Iterations 0
ExecutionTime = 0.1 s  ClockTime = 0 s

Time = 10.4

DICPCG:  Solving for T, Initial residual = 0.00112926, Final residual = 7.01929e-08, No Iterations 3
DICPCG:  Solving for T, Initial residual = 7.01881e-08, Final residual = 7.01881e-08, No Iterations 0
DICPCG:  Solving for T, Initial residual = 7.01881e-08, Final residual = 7.01881e-08, No Iterations 0
ExecutionTime = 0.1 s  ClockTime = 0 s

Time = 10.45

DICPCG:  Solving for T, Initial residual = 0.00112073, Final residual = 6.96681e-08, No Iterations 3
DICPCG:  Solving for T, Initial residual = 6.96634e-08, Final residual = 6.96634e-08, No Iterations 0
DICPCG:  Solving for T, Initial residual = 6.96634e-08, Final residual = 6.96634e-08, No Iterations 0
ExecutionTime = 0.1 s  ClockTime = 0 s

Time = 10.5

DICPCG:  Solving for T, Initial residual = 0.00111227, Final residual = 6.91472e-08, No Iterations 3
DICPCG:  Solving for T, Initial residual = 6.91426e-08, Final residual = 6.91426e-08, No Iterations 0
DICPCG:  Solving for T, Initial residual = 6.91426e-08, Final residual = 6.91426e-08, No Iterations 0
ExecutionTime = 0.1 s  ClockTime = 0 s

Time = 10.55

DICPCG:  Solving for T, Initial residual = 0.00110387, Final residual = 6.86302e-08, No Iterations 3
DICPCG:  Solving for T, Initial residual = 6.86257e-08, Final residual = 6.86257e-08, No Iterations 0
DICPCG:  Solving for T, Initial residual = 6.86257e-08, Final residual = 6.86257e-08, No Iterations 0
ExecutionTime = 0.11 s  ClockTime = 0 s

Time = 10.6

DICPCG:  Solving for T, Initial residual = 0.00109554, Final residual = 6.81169e-08, No Iterations 3
DICPCG:  Solving for T, Initial residual = 6.81125e-08, Final residual = 6.81125e-08, No Iterations 0
DICPCG:  Solving for T, Initial residual = 6.81125e-08, Final residual = 6.81125e-08, No Iterations 0
ExecutionTime = 0.11 s  ClockTime = 0 s

Time = 10.65

DICPCG:  Solving for T, Initial residual = 0.00108727, Final residual = 6.76074e-08, No Iterations 3
DICPCG:  Solving for T, Initial residual = 6.76031e-08, Final residual = 6.76031e-08, No Iterations 0
DICPCG:  Solving for T, Initial residual = 6.76031e-08, Final residual = 6.76031e-08, No Iterations 0
ExecutionTime = 0.11 s  ClockTime = 0 s

Time = 10.7

DICPCG:  Solving for T, Initial residual = 0.00107906, Final residual = 6.71016e-08, No Iterations 3
DICPCG:  Solving for T, Initial residual = 6.70973e-08, Final residual = 6.70973e-08, No Iterations 0
DICPCG:  Solving for T, Initial residual = 6.70973e-08, Final residual = 6.70973e-08, No Iterations 0
ExecutionTime = 0.11 s  ClockTime = 0 s

Time = 10.75

DICPCG:  Solving for T, Initial residual = 0.00107091, Final residual = 6.65994e-08, No Iterations 3
DICPCG:  Solving for T, Initial residual = 6.65953e-08, Final residual = 6.65953e-08, No Iterations 0
DICPCG:  Solving for T, Initial residual = 6.65953e-08, Final residual = 6.65953e-08, No Iterations 0
ExecutionTime = 0.11 s  ClockTime = 0 s

Time = 10.8

DICPCG:  Solving for T, Initial residual = 0.00106283, Final residual = 6.6101e-08, No Iterations 3
DICPCG:  Solving for T, Initial residual = 6.60969e-08, Final residual = 6.60969e-08, No Iterations 0
DICPCG:  Solving for T, Initial residual = 6.60969e-08, Final residual = 6.60969e-08, No Iterations 0
ExecutionTime = 0.11 s  ClockTime = 0 s

Time = 10.85

DICPCG:  Solving for T, Initial residual = 0.0010548, Final residual = 6.56062e-08, No Iterations 3
DICPCG:  Solving for T, Initial residual = 6.56022e-08, Final residual = 6.56022e-08, No Iterations 0
DICPCG:  Solving for T, Initial residual = 6.56022e-08, Final residual = 6.56022e-08, No Iterations 0
ExecutionTime = 0.11 s  ClockTime = 0 s

Time = 10.9

DICPCG:  Solving for T, Initial residual = 0.00104684, Final residual = 6.5115e-08, No Iterations 3
DICPCG:  Solving for T, Initial residual = 6.51111e-08, Final residual = 6.51111e-08, No Iterations 0
DICPCG:  Solving for T, Initial residual = 6.51111e-08, Final residual = 6.51111e-08, No Iterations 0
ExecutionTime = 0.11 s  ClockTime = 0 s

Time = 10.95

DICPCG:  Solving for T, Initial residual = 0.00103894, Final residual = 6.46274e-08, No Iterations 3
[...]
DICPCG:  Solving for T, Initial residual = 1.16852e-07, Final residual = 1.16852e-07, No Iterations 0
DICPCG:  Solving for T, Initial residual = 1.16852e-07, Final residual = 1.16852e-07, No Iterations 0
ExecutionTime = 0.44 s  ClockTime = 0 s

Time = 47.35

DICPCG:  Solving for T, Initial residual = 3.94142e-06, Final residual = 1.1596e-07, No Iterations 1
DICPCG:  Solving for T, Initial residual = 1.1596e-07, Final residual = 1.1596e-07, No Iterations 0
DICPCG:  Solving for T, Initial residual = 1.1596e-07, Final residual = 1.1596e-07, No Iterations 0
ExecutionTime = 0.44 s  ClockTime = 0 s

Time = 47.4

DICPCG:  Solving for T, Initial residual = 3.91132e-06, Final residual = 1.15074e-07, No Iterations 1
DICPCG:  Solving for T, Initial residual = 1.15074e-07, Final residual = 1.15074e-07, No Iterations 0
DICPCG:  Solving for T, Initial residual = 1.15074e-07, Final residual = 1.15074e-07, No Iterations 0
ExecutionTime = 0.44 s  ClockTime = 0 s

Time = 47.45

DICPCG:  Solving for T, Initial residual = 3.88145e-06, Final residual = 1.14196e-07, No Iterations 1
DICPCG:  Solving for T, Initial residual = 1.14196e-07, Final residual = 1.14196e-07, No Iterations 0
DICPCG:  Solving for T, Initial residual = 1.14196e-07, Final residual = 1.14196e-07, No Iterations 0
ExecutionTime = 0.44 s  ClockTime = 0 s

Time = 47.5

DICPCG:  Solving for T, Initial residual = 3.85181e-06, Final residual = 1.13324e-07, No Iterations 1
DICPCG:  Solving for T, Initial residual = 1.13324e-07, Final residual = 1.13324e-07, No Iterations 0
DICPCG:  Solving for T, Initial residual = 1.13324e-07, Final residual = 1.13324e-07, No Iterations 0
ExecutionTime = 0.44 s  ClockTime = 0 s

Time = 47.55

DICPCG:  Solving for T, Initial residual = 3.8224e-06, Final residual = 1.12458e-07, No Iterations 1
DICPCG:  Solving for T, Initial residual = 1.12458e-07, Final residual = 1.12458e-07, No Iterations 0
DICPCG:  Solving for T, Initial residual = 1.12458e-07, Final residual = 1.12458e-07, No Iterations 0
ExecutionTime = 0.44 s  ClockTime = 0 s

Time = 47.6

DICPCG:  Solving for T, Initial residual = 3.79321e-06, Final residual = 1.11599e-07, No Iterations 1
DICPCG:  Solving for T, Initial residual = 1.11599e-07, Final residual = 1.11599e-07, No Iterations 0
DICPCG:  Solving for T, Initial residual = 1.11599e-07, Final residual = 1.11599e-07, No Iterations 0
ExecutionTime = 0.44 s  ClockTime = 0 s

Time = 47.65

DICPCG:  Solving for T, Initial residual = 3.76425e-06, Final residual = 1.10747e-07, No Iterations 1
DICPCG:  Solving for T, Initial residual = 1.10747e-07, Final residual = 1.10747e-07, No Iterations 0
DICPCG:  Solving for T, Initial residual = 1.10747e-07, Final residual = 1.10747e-07, No Iterations 0
ExecutionTime = 0.44 s  ClockTime = 0 s

Time = 47.7

DICPCG:  Solving for T, Initial residual = 3.7355e-06, Final residual = 1.09902e-07, No Iterations 1
DICPCG:  Solving for T, Initial residual = 1.09902e-07, Final residual = 1.09902e-07, No Iterations 0
DICPCG:  Solving for T, Initial residual = 1.09902e-07, Final residual = 1.09902e-07, No Iterations 0
ExecutionTime = 0.44 s  ClockTime = 0 s

Time = 47.75

DICPCG:  Solving for T, Initial residual = 3.70698e-06, Final residual = 1.09062e-07, No Iterations 1
DICPCG:  Solving for T, Initial residual = 1.09062e-07, Final residual = 1.09062e-07, No Iterations 0
DICPCG:  Solving for T, Initial residual = 1.09062e-07, Final residual = 1.09062e-07, No Iterations 0
ExecutionTime = 0.44 s  ClockTime = 0 s

Time = 47.8

DICPCG:  Solving for T, Initial residual = 3.67867e-06, Final residual = 1.0823e-07, No Iterations 1
DICPCG:  Solving for T, Initial residual = 1.0823e-07, Final residual = 1.0823e-07, No Iterations 0
DICPCG:  Solving for T, Initial residual = 1.0823e-07, Final residual = 1.0823e-07, No Iterations 0
ExecutionTime = 0.44 s  ClockTime = 0 s

Time = 47.85

DICPCG:  Solving for T, Initial residual = 3.65058e-06, Final residual = 1.07403e-07, No Iterations 1
DICPCG:  Solving for T, Initial residual = 1.07403e-07, Final residual = 1.07403e-07, No Iterations 0
DICPCG:  Solving for T, Initial residual = 1.07403e-07, Final residual = 1.07403e-07, No Iterations 0
ExecutionTime = 0.44 s  ClockTime = 0 s

Time = 47.9

DICPCG:  Solving for T, Initial residual = 3.6227e-06, Final residual = 1.06583e-07, No Iterations 1
DICPCG:  Solving for T, Initial residual = 1.06583e-07, Final residual = 1.06583e-07, No Iterations 0
DICPCG:  Solving for T, Initial residual = 1.06583e-07, Final residual = 1.06583e-07, No Iterations 0
ExecutionTime = 0.44 s  ClockTime = 0 s

Time = 47.95

DICPCG:  Solving for T, Initial residual = 3.59504e-06, Final residual = 1.05769e-07, No Iterations 1
DICPCG:  Solving for T, Initial residual = 1.05769e-07, Final residual = 1.05769e-07, No Iterations 0
DICPCG:  Solving for T, Initial residual = 1.05769e-07, Final residual = 1.05769e-07, No Iterations 0
ExecutionTime = 0.44 s  ClockTime = 0 s

Time = 48

DICPCG:  Solving for T, Initial residual = 3.56759e-06, Final residual = 1.04961e-07, No Iterations 1
DICPCG:  Solving for T, Initial residual = 1.04961e-07, Final residual = 1.04961e-07, No Iterations 0
DICPCG:  Solving for T, Initial residual = 1.04961e-07, Final residual = 1.04961e-07, No Iterations 0
ExecutionTime = 0.44 s  ClockTime = 0 s

Time = 48.05

DICPCG:  Solving for T, Initial residual = 3.54034e-06, Final residual = 1.0416e-07, No Iterations 1
DICPCG:  Solving for T, Initial residual = 1.0416e-07, Final residual = 1.0416e-07, No Iterations 0
DICPCG:  Solving for T, Initial residual = 1.0416e-07, Final residual = 1.0416e-07, No Iterations 0
ExecutionTime = 0.44 s  ClockTime = 0 s

runTime.value(): 48.05
snapshotsTime: 48
Time = 48.1

DICPCG:  Solving for T, Initial residual = 3.51331e-06, Final residual = 1.03364e-07, No Iterations 1
DICPCG:  Solving for T, Initial residual = 1.03364e-07, Final residual = 1.03364e-07, No Iterations 0
DICPCG:  Solving for T, Initial residual = 1.03364e-07, Final residual = 1.03364e-07, No Iterations 0
ExecutionTime = 0.44 s  ClockTime = 0 s

Time = 48.15

DICPCG:  Solving for T, Initial residual = 3.48648e-06, Final residual = 1.02575e-07, No Iterations 1
DICPCG:  Solving for T, Initial residual = 1.02575e-07, Final residual = 1.02575e-07, No Iterations 0
DICPCG:  Solving for T, Initial residual = 1.02575e-07, Final residual = 1.02575e-07, No Iterations 0
ExecutionTime = 0.44 s  ClockTime = 0 s

Time = 48.2

DICPCG:  Solving for T, Initial residual = 3.45986e-06, Final residual = 1.01792e-07, No Iterations 1
DICPCG:  Solving for T, Initial residual = 1.01792e-07, Final residual = 1.01792e-07, No Iterations 0
DICPCG:  Solving for T, Initial residual = 1.01792e-07, Final residual = 1.01792e-07, No Iterations 0
ExecutionTime = 0.44 s  ClockTime = 0 s

Time = 48.25

DICPCG:  Solving for T, Initial residual = 3.43344e-06, Final residual = 1.01015e-07, No Iterations 1
DICPCG:  Solving for T, Initial residual = 1.01015e-07, Final residual = 1.01015e-07, No Iterations 0
DICPCG:  Solving for T, Initial residual = 1.01015e-07, Final residual = 1.01015e-07, No Iterations 0
ExecutionTime = 0.44 s  ClockTime = 0 s

Time = 48.3

DICPCG:  Solving for T, Initial residual = 3.40722e-06, Final residual = 1.00243e-07, No Iterations 1
DICPCG:  Solving for T, Initial residual = 1.00243e-07, Final residual = 1.00243e-07, No Iterations 0
DICPCG:  Solving for T, Initial residual = 1.00243e-07, Final residual = 1.00243e-07, No Iterations 0
ExecutionTime = 0.44 s  ClockTime = 0 s

Time = 48.35

DICPCG:  Solving for T, Initial residual = 3.3812e-06, Final residual = 9.94777e-08, No Iterations 1
DICPCG:  Solving for T, Initial residual = 9.94777e-08, Final residual = 9.94777e-08, No Iterations 0
DICPCG:  Solving for T, Initial residual = 9.94777e-08, Final residual = 9.94777e-08, No Iterations 0
ExecutionTime = 0.44 s  ClockTime = 0 s

Time = 48.4

DICPCG:  Solving for T, Initial residual = 3.35538e-06, Final residual = 9.87181e-08, No Iterations 1
DICPCG:  Solving for T, Initial residual = 9.87181e-08, Final residual = 9.87181e-08, No Iterations 0
DICPCG:  Solving for T, Initial residual = 9.87181e-08, Final residual = 9.87181e-08, No Iterations 0
ExecutionTime = 0.45 s  ClockTime = 0 s

Time = 48.45

DICPCG:  Solving for T, Initial residual = 3.32976e-06, Final residual = 9.79643e-08, No Iterations 1
DICPCG:  Solving for T, Initial residual = 9.79643e-08, Final residual = 9.79643e-08, No Iterations 0
DICPCG:  Solving for T, Initial residual = 9.79643e-08, Final residual = 9.79643e-08, No Iterations 0
ExecutionTime = 0.45 s  ClockTime = 0 s

Time = 48.5

DICPCG:  Solving for T, Initial residual = 3.30433e-06, Final residual = 9.72162e-08, No Iterations 1
DICPCG:  Solving for T, Initial residual = 9.72162e-08, Final residual = 9.72162e-08, No Iterations 0
DICPCG:  Solving for T, Initial residual = 9.72162e-08, Final residual = 9.72162e-08, No Iterations 0
ExecutionTime = 0.45 s  ClockTime = 0 s

Time = 48.55

DICPCG:  Solving for T, Initial residual = 3.2791e-06, Final residual = 9.64738e-08, No Iterations 1
DICPCG:  Solving for T, Initial residual = 9.64738e-08, Final residual = 9.64738e-08, No Iterations 0
DICPCG:  Solving for T, Initial residual = 9.64738e-08, Final residual = 9.64738e-08, No Iterations 0
ExecutionTime = 0.45 s  ClockTime = 0 s

Time = 48.6

DICPCG:  Solving for T, Initial residual = 3.25406e-06, Final residual = 9.57371e-08, No Iterations 1
DICPCG:  Solving for T, Initial residual = 9.57371e-08, Final residual = 9.57371e-08, No Iterations 0
DICPCG:  Solving for T, Initial residual = 9.57371e-08, Final residual = 9.57371e-08, No Iterations 0
ExecutionTime = 0.45 s  ClockTime = 0 s

Time = 48.65

DICPCG:  Solving for T, Initial residual = 3.22921e-06, Final residual = 9.50061e-08, No Iterations 1
DICPCG:  Solving for T, Initial residual = 9.50061e-08, Final residual = 9.50061e-08, No Iterations 0
DICPCG:  Solving for T, Initial residual = 9.50061e-08, Final residual = 9.50061e-08, No Iterations 0
ExecutionTime = 0.45 s  ClockTime = 0 s

Time = 48.7

DICPCG:  Solving for T, Initial residual = 3.20455e-06, Final residual = 9.42806e-08, No Iterations 1
DICPCG:  Solving for T, Initial residual = 9.42806e-08, Final residual = 9.42806e-08, No Iterations 0
DICPCG:  Solving for T, Initial residual = 9.42806e-08, Final residual = 9.42806e-08, No Iterations 0
ExecutionTime = 0.45 s  ClockTime = 0 s

Time = 48.75

DICPCG:  Solving for T, Initial residual = 3.18008e-06, Final residual = 9.35606e-08, No Iterations 1
DICPCG:  Solving for T, Initial residual = 9.35606e-08, Final residual = 9.35606e-08, No Iterations 0
DICPCG:  Solving for T, Initial residual = 9.35606e-08, Final residual = 9.35606e-08, No Iterations 0
ExecutionTime = 0.45 s  ClockTime = 0 s

Time = 48.8

DICPCG:  Solving for T, Initial residual = 3.1558e-06, Final residual = 9.28462e-08, No Iterations 1
DICPCG:  Solving for T, Initial residual = 9.28462e-08, Final residual = 9.28462e-08, No Iterations 0
DICPCG:  Solving for T, Initial residual = 9.28462e-08, Final residual = 9.28462e-08, No Iterations 0
ExecutionTime = 0.45 s  ClockTime = 0 s

Time = 48.85

DICPCG:  Solving for T, Initial residual = 3.1317e-06, Final residual = 9.21372e-08, No Iterations 1
DICPCG:  Solving for T, Initial residual = 9.21372e-08, Final residual = 9.21372e-08, No Iterations 0
DICPCG:  Solving for T, Initial residual = 9.21372e-08, Final residual = 9.21372e-08, No Iterations 0
ExecutionTime = 0.45 s  ClockTime = 0 s

Time = 48.9

DICPCG:  Solving for T, Initial residual = 3.10779e-06, Final residual = 9.14336e-08, No Iterations 1
DICPCG:  Solving for T, Initial residual = 9.14336e-08, Final residual = 9.14336e-08, No Iterations 0
DICPCG:  Solving for T, Initial residual = 9.14336e-08, Final residual = 9.14336e-08, No Iterations 0
ExecutionTime = 0.45 s  ClockTime = 0 s

Time = 48.95

DICPCG:  Solving for T, Initial residual = 3.08405e-06, Final residual = 9.07354e-08, No Iterations 1
DICPCG:  Solving for T, Initial residual = 9.07354e-08, Final residual = 9.07354e-08, No Iterations 0
DICPCG:  Solving for T, Initial residual = 9.07354e-08, Final residual = 9.07354e-08, No Iterations 0
ExecutionTime = 0.45 s  ClockTime = 0 s

Time = 49

DICPCG:  Solving for T, Initial residual = 3.0605e-06, Final residual = 9.00425e-08, No Iterations 1
DICPCG:  Solving for T, Initial residual = 9.00425e-08, Final residual = 9.00425e-08, No Iterations 0
DICPCG:  Solving for T, Initial residual = 9.00425e-08, Final residual = 9.00425e-08, No Iterations 0
ExecutionTime = 0.45 s  ClockTime = 0 s

Time = 49.05

DICPCG:  Solving for T, Initial residual = 3.03713e-06, Final residual = 8.9355e-08, No Iterations 1
DICPCG:  Solving for T, Initial residual = 8.9355e-08, Final residual = 8.9355e-08, No Iterations 0
DICPCG:  Solving for T, Initial residual = 8.9355e-08, Final residual = 8.9355e-08, No Iterations 0
ExecutionTime = 0.45 s  ClockTime = 0 s

runTime.value(): 49.05
snapshotsTime: 49
Time = 49.1

DICPCG:  Solving for T, Initial residual = 3.01394e-06, Final residual = 8.86726e-08, No Iterations 1
DICPCG:  Solving for T, Initial residual = 8.86726e-08, Final residual = 8.86726e-08, No Iterations 0
DICPCG:  Solving for T, Initial residual = 8.86726e-08, Final residual = 8.86726e-08, No Iterations 0
ExecutionTime = 0.45 s  ClockTime = 0 s

Time = 49.15

DICPCG:  Solving for T, Initial residual = 2.99093e-06, Final residual = 8.79955e-08, No Iterations 1
DICPCG:  Solving for T, Initial residual = 8.79955e-08, Final residual = 8.79955e-08, No Iterations 0
DICPCG:  Solving for T, Initial residual = 8.79955e-08, Final residual = 8.79955e-08, No Iterations 0
ExecutionTime = 0.45 s  ClockTime = 0 s

Time = 49.2

DICPCG:  Solving for T, Initial residual = 2.96809e-06, Final residual = 8.73236e-08, No Iterations 1
DICPCG:  Solving for T, Initial residual = 8.73236e-08, Final residual = 8.73236e-08, No Iterations 0
DICPCG:  Solving for T, Initial residual = 8.73236e-08, Final residual = 8.73236e-08, No Iterations 0
ExecutionTime = 0.45 s  ClockTime = 0 s

Time = 49.25

DICPCG:  Solving for T, Initial residual = 2.94542e-06, Final residual = 8.66567e-08, No Iterations 1
DICPCG:  Solving for T, Initial residual = 8.66567e-08, Final residual = 8.66567e-08, No Iterations 0
DICPCG:  Solving for T, Initial residual = 8.66567e-08, Final residual = 8.66567e-08, No Iterations 0
ExecutionTime = 0.45 s  ClockTime = 0 s

Time = 49.3

DICPCG:  Solving for T, Initial residual = 2.92293e-06, Final residual = 8.5995e-08, No Iterations 1
DICPCG:  Solving for T, Initial residual = 8.5995e-08, Final residual = 8.5995e-08, No Iterations 0
DICPCG:  Solving for T, Initial residual = 8.5995e-08, Final residual = 8.5995e-08, No Iterations 0
ExecutionTime = 0.45 s  ClockTime = 0 s

Time = 49.35

DICPCG:  Solving for T, Initial residual = 2.90061e-06, Final residual = 8.53383e-08, No Iterations 1
DICPCG:  Solving for T, Initial residual = 8.53383e-08, Final residual = 8.53383e-08, No Iterations 0
DICPCG:  Solving for T, Initial residual = 8.53383e-08, Final residual = 8.53383e-08, No Iterations 0
ExecutionTime = 0.45 s  ClockTime = 0 s

Time = 49.4

DICPCG:  Solving for T, Initial residual = 2.87846e-06, Final residual = 8.46867e-08, No Iterations 1
DICPCG:  Solving for T, Initial residual = 8.46867e-08, Final residual = 8.46867e-08, No Iterations 0
DICPCG:  Solving for T, Initial residual = 8.46867e-08, Final residual = 8.46867e-08, No Iterations 0
ExecutionTime = 0.45 s  ClockTime = 0 s

Time = 49.45

DICPCG:  Solving for T, Initial residual = 2.85648e-06, Final residual = 8.404e-08, No Iterations 1
DICPCG:  Solving for T, Initial residual = 8.404e-08, Final residual = 8.404e-08, No Iterations 0
DICPCG:  Solving for T, Initial residual = 8.404e-08, Final residual = 8.404e-08, No Iterations 0
ExecutionTime = 0.45 s  ClockTime = 0 s

Time = 49.5

DICPCG:  Solving for T, Initial residual = 2.83467e-06, Final residual = 8.33982e-08, No Iterations 1
DICPCG:  Solving for T, Initial residual = 8.33982e-08, Final residual = 8.33982e-08, No Iterations 0
DICPCG:  Solving for T, Initial residual = 8.33982e-08, Final residual = 8.33982e-08, No Iterations 0
ExecutionTime = 0.45 s  ClockTime = 0 s

Time = 49.55

DICPCG:  Solving for T, Initial residual = 2.81302e-06, Final residual = 8.27614e-08, No Iterations 1
DICPCG:  Solving for T, Initial residual = 8.27614e-08, Final residual = 8.27614e-08, No Iterations 0
DICPCG:  Solving for T, Initial residual = 8.27614e-08, Final residual = 8.27614e-08, No Iterations 0
ExecutionTime = 0.46 s  ClockTime = 0 s

Time = 49.6

DICPCG:  Solving for T, Initial residual = 2.79154e-06, Final residual = 8.21294e-08, No Iterations 1
DICPCG:  Solving for T, Initial residual = 8.21294e-08, Final residual = 8.21294e-08, No Iterations 0
DICPCG:  Solving for T, Initial residual = 8.21294e-08, Final residual = 8.21294e-08, No Iterations 0
ExecutionTime = 0.46 s  ClockTime = 0 s

Time = 49.65

DICPCG:  Solving for T, Initial residual = 2.77022e-06, Final residual = 8.15023e-08, No Iterations 1
DICPCG:  Solving for T, Initial residual = 8.15023e-08, Final residual = 8.15023e-08, No Iterations 0
DICPCG:  Solving for T, Initial residual = 8.15023e-08, Final residual = 8.15023e-08, No Iterations 0
ExecutionTime = 0.46 s  ClockTime = 0 s

Time = 49.7

DICPCG:  Solving for T, Initial residual = 2.74907e-06, Final residual = 8.08799e-08, No Iterations 1
DICPCG:  Solving for T, Initial residual = 8.08799e-08, Final residual = 8.08799e-08, No Iterations 0
DICPCG:  Solving for T, Initial residual = 8.08799e-08, Final residual = 8.08799e-08, No Iterations 0
ExecutionTime = 0.46 s  ClockTime = 0 s

Time = 49.75

DICPCG:  Solving for T, Initial residual = 2.72808e-06, Final residual = 8.02623e-08, No Iterations 1
DICPCG:  Solving for T, Initial residual = 8.02623e-08, Final residual = 8.02623e-08, No Iterations 0
DICPCG:  Solving for T, Initial residual = 8.02623e-08, Final residual = 8.02623e-08, No Iterations 0
ExecutionTime = 0.46 s  ClockTime = 0 s

Time = 49.8

DICPCG:  Solving for T, Initial residual = 2.70725e-06, Final residual = 7.96494e-08, No Iterations 1
DICPCG:  Solving for T, Initial residual = 7.96494e-08, Final residual = 7.96494e-08, No Iterations 0
DICPCG:  Solving for T, Initial residual = 7.96494e-08, Final residual = 7.96494e-08, No Iterations 0
ExecutionTime = 0.46 s  ClockTime = 0 s

Time = 49.85

DICPCG:  Solving for T, Initial residual = 2.68657e-06, Final residual = 7.90412e-08, No Iterations 1
DICPCG:  Solving for T, Initial residual = 7.90412e-08, Final residual = 7.90412e-08, No Iterations 0
DICPCG:  Solving for T, Initial residual = 7.90412e-08, Final residual = 7.90412e-08, No Iterations 0
ExecutionTime = 0.46 s  ClockTime = 0 s

Time = 49.9

DICPCG:  Solving for T, Initial residual = 2.66606e-06, Final residual = 7.84376e-08, No Iterations 1
DICPCG:  Solving for T, Initial residual = 7.84376e-08, Final residual = 7.84376e-08, No Iterations 0
DICPCG:  Solving for T, Initial residual = 7.84376e-08, Final residual = 7.84376e-08, No Iterations 0
ExecutionTime = 0.46 s  ClockTime = 0 s

Time = 49.95

DICPCG:  Solving for T, Initial residual = 2.6457e-06, Final residual = 7.78386e-08, No Iterations 1
DICPCG:  Solving for T, Initial residual = 7.78386e-08, Final residual = 7.78386e-08, No Iterations 0
DICPCG:  Solving for T, Initial residual = 7.78386e-08, Final residual = 7.78386e-08, No Iterations 0
ExecutionTime = 0.46 s  ClockTime = 0 s

Time = 50

DICPCG:  Solving for T, Initial residual = 2.6255e-06, Final residual = 7.72442e-08, No Iterations 1
DICPCG:  Solving for T, Initial residual = 7.72442e-08, Final residual = 7.72442e-08, No Iterations 0
DICPCG:  Solving for T, Initial residual = 7.72442e-08, Final residual = 7.72442e-08, No Iterations 0
ExecutionTime = 0.46 s  ClockTime = 0 s

End

snapshots number is: 50
snapshotsTime is: 50
test2
write svd data

write Snapshot Matrix: (500 50)
write spatial mode Matrix: (500 50)
write temporal coefficient Matrix: (50 50)
write eigenvalue: 50
laplacian of modes Matrix: (500 5)
