/*---------------------------------------------------------------------------*\
| =========                 |                                                 |
| \\      /  F ield         | OpenFOAM: The Open Source CFD Toolbox           |
|  \\    /   O peration     | Version:  v2106                                 |
|   \\  /    A nd           | Website:  www.openfoam.com                      |
|    \\/     M anipulation  |                                                 |
\*---------------------------------------------------------------------------*/
Build  : _c15bfde3cb-20210624 OPENFOAM=2106
Arch   : "LSB;label=32;scalar=64"
Exec   : laplacianFoamTest
Date   : Jun 16 2022
Time   : 22:51:46
Host   : Sh-Ruan-matebook
PID    : 7148
I/O    : uncollated
Case   : /home/shenhui_ruan/gitFolder/RshOpenFOAMSourceCode/laplacianFoamTestLifting/svdtest
nProcs : 1
trapFpe: Floating point exception trapping enabled (FOAM_SIGFPE).
fileModificationChecking : Monitoring run-time modified files using timeStampMaster (fileModificationSkew 5, maxFileModificationPolls 20)
allowSystemOperations : Allowing user-supplied system call operations

// * * * * * * * * * * * * * * * * * * * * * * * * * * * * * * * * * * * * * //
Create time

Create mesh for time = 0


SIMPLE: no convergence criteria found. Calculations will run for 50 steps.

Reading field T

Reading diffusivity DT

No finite volume options present

Calculating temperature distribution

snapshots extract
time Interval of snapshots is: 1

Time = 0.05

DICPCG:  Solving for T, Initial residual = 1, Final residual = 5.6325153e-07, No Iterations 5
DICPCG:  Solving for T, Initial residual = 1.7601611e-07, Final residual = 1.7601611e-07, No Iterations 0
DICPCG:  Solving for T, Initial residual = 1.7601611e-07, Final residual = 1.7601611e-07, No Iterations 0
ExecutionTime = 0.01 s  ClockTime = 0 s

Time = 0.1

DICPCG:  Solving for T, Initial residual = 0.17793594, Final residual = 9.8485688e-08, No Iterations 5
DICPCG:  Solving for T, Initial residual = 7.287019e-08, Final residual = 7.287019e-08, No Iterations 0
DICPCG:  Solving for T, Initial residual = 7.287019e-08, Final residual = 7.287019e-08, No Iterations 0
ExecutionTime = 0.01 s  ClockTime = 0 s

Time = 0.15

DICPCG:  Solving for T, Initial residual = 0.088442592, Final residual = 8.5547417e-07, No Iterations 4
DICPCG:  Solving for T, Initial residual = 7.2712677e-07, Final residual = 7.2712677e-07, No Iterations 0
DICPCG:  Solving for T, Initial residual = 7.2712677e-07, Final residual = 7.2712677e-07, No Iterations 0
ExecutionTime = 0.01 s  ClockTime = 0 s

Time = 0.2

DICPCG:  Solving for T, Initial residual = 0.055747516, Final residual = 4.8985422e-07, No Iterations 4
DICPCG:  Solving for T, Initial residual = 4.4209162e-07, Final residual = 4.4209162e-07, No Iterations 0
DICPCG:  Solving for T, Initial residual = 4.4209162e-07, Final residual = 4.4209162e-07, No Iterations 0
ExecutionTime = 0.01 s  ClockTime = 0 s

Time = 0.25

DICPCG:  Solving for T, Initial residual = 0.040070504, Final residual = 3.3590451e-07, No Iterations 4
DICPCG:  Solving for T, Initial residual = 3.1134362e-07, Final residual = 3.1134362e-07, No Iterations 0
DICPCG:  Solving for T, Initial residual = 3.1134362e-07, Final residual = 3.1134362e-07, No Iterations 0
ExecutionTime = 0.01 s  ClockTime = 0 s

Time = 0.3

DICPCG:  Solving for T, Initial residual = 0.031221088, Final residual = 2.4963335e-07, No Iterations 4
DICPCG:  Solving for T, Initial residual = 2.3567428e-07, Final residual = 2.3567428e-07, No Iterations 0
DICPCG:  Solving for T, Initial residual = 2.3567428e-07, Final residual = 2.3567428e-07, No Iterations 0
ExecutionTime = 0.01 s  ClockTime = 0 s

Time = 0.35

DICPCG:  Solving for T, Initial residual = 0.025740663, Final residual = 1.9665647e-07, No Iterations 4
DICPCG:  Solving for T, Initial residual = 1.8788962e-07, Final residual = 1.8788962e-07, No Iterations 0
DICPCG:  Solving for T, Initial residual = 1.8788962e-07, Final residual = 1.8788962e-07, No Iterations 0
ExecutionTime = 0.01 s  ClockTime = 0 s

Time = 0.4

DICPCG:  Solving for T, Initial residual = 0.021973271, Final residual = 1.5930623e-07, No Iterations 4
DICPCG:  Solving for T, Initial residual = 1.5347259e-07, Final residual = 1.5347259e-07, No Iterations 0
DICPCG:  Solving for T, Initial residual = 1.5347259e-07, Final residual = 1.5347259e-07, No Iterations 0
ExecutionTime = 0.01 s  ClockTime = 0 s

Time = 0.45

DICPCG:  Solving for T, Initial residual = 0.019240194, Final residual = 1.3389852e-07, No Iterations 4
DICPCG:  Solving for T, Initial residual = 1.2944758e-07, Final residual = 1.2944758e-07, No Iterations 0
DICPCG:  Solving for T, Initial residual = 1.2944758e-07, Final residual = 1.2944758e-07, No Iterations 0
ExecutionTime = 0.01 s  ClockTime = 0 s

Time = 0.5

DICPCG:  Solving for T, Initial residual = 0.017154228, Final residual = 1.1414985e-07, No Iterations 4
DICPCG:  Solving for T, Initial residual = 1.1086579e-07, Final residual = 1.1086579e-07, No Iterations 0
DICPCG:  Solving for T, Initial residual = 1.1086579e-07, Final residual = 1.1086579e-07, No Iterations 0
ExecutionTime = 0.01 s  ClockTime = 0 s

Time = 0.55

DICPCG:  Solving for T, Initial residual = 0.01553593, Final residual = 9.9105432e-08, No Iterations 4
DICPCG:  Solving for T, Initial residual = 9.6605573e-08, Final residual = 9.6605573e-08, No Iterations 0
DICPCG:  Solving for T, Initial residual = 9.6605573e-08, Final residual = 9.6605573e-08, No Iterations 0
ExecutionTime = 0.01 s  ClockTime = 0 s

Time = 0.6

DICPCG:  Solving for T, Initial residual = 0.014243736, Final residual = 8.7618242e-08, No Iterations 4
DICPCG:  Solving for T, Initial residual = 8.5659651e-08, Final residual = 8.5659651e-08, No Iterations 0
DICPCG:  Solving for T, Initial residual = 8.5659651e-08, Final residual = 8.5659651e-08, No Iterations 0
ExecutionTime = 0.01 s  ClockTime = 0 s

Time = 0.65

DICPCG:  Solving for T, Initial residual = 0.013187698, Final residual = 7.8596331e-08, No Iterations 4
DICPCG:  Solving for T, Initial residual = 7.7025146e-08, Final residual = 7.7025146e-08, No Iterations 0
DICPCG:  Solving for T, Initial residual = 7.7025146e-08, Final residual = 7.7025146e-08, No Iterations 0
ExecutionTime = 0.01 s  ClockTime = 0 s

Time = 0.7

DICPCG:  Solving for T, Initial residual = 0.0123078, Final residual = 7.1652963e-08, No Iterations 4
DICPCG:  Solving for T, Initial residual = 7.0363607e-08, Final residual = 7.0363607e-08, No Iterations 0
DICPCG:  Solving for T, Initial residual = 7.0363607e-08, Final residual = 7.0363607e-08, No Iterations 0
ExecutionTime = 0.02 s  ClockTime = 0 s

Time = 0.75

DICPCG:  Solving for T, Initial residual = 0.011537838, Final residual = 6.5811224e-08, No Iterations 4
DICPCG:  Solving for T, Initial residual = 6.4736013e-08, Final residual = 6.4736013e-08, No Iterations 0
DICPCG:  Solving for T, Initial residual = 6.4736013e-08, Final residual = 6.4736013e-08, No Iterations 0
ExecutionTime = 0.02 s  ClockTime = 0 s

Time = 0.8

DICPCG:  Solving for T, Initial residual = 0.010865694, Final residual = 6.0796825e-08, No Iterations 4
DICPCG:  Solving for T, Initial residual = 5.982557e-08, Final residual = 5.982557e-08, No Iterations 0
DICPCG:  Solving for T, Initial residual = 5.982557e-08, Final residual = 5.982557e-08, No Iterations 0
ExecutionTime = 0.02 s  ClockTime = 0 s

Time = 0.85

DICPCG:  Solving for T, Initial residual = 0.010271983, Final residual = 5.6369328e-08, No Iterations 4
DICPCG:  Solving for T, Initial residual = 5.5541126e-08, Final residual = 5.5541126e-08, No Iterations 0
DICPCG:  Solving for T, Initial residual = 5.5541126e-08, Final residual = 5.5541126e-08, No Iterations 0
ExecutionTime = 0.02 s  ClockTime = 0 s

Time = 0.9

DICPCG:  Solving for T, Initial residual = 0.009752592, Final residual = 5.2589155e-08, No Iterations 4
DICPCG:  Solving for T, Initial residual = 5.1875631e-08, Final residual = 5.1875631e-08, No Iterations 0
DICPCG:  Solving for T, Initial residual = 5.1875631e-08, Final residual = 5.1875631e-08, No Iterations 0
ExecutionTime = 0.02 s  ClockTime = 0 s

Time = 0.95

DICPCG:  Solving for T, Initial residual = 0.0092943893, Final residual = 4.931626e-08, No Iterations 4
DICPCG:  Solving for T, Initial residual = 4.8696052e-08, Final residual = 4.8696052e-08, No Iterations 0
DICPCG:  Solving for T, Initial residual = 4.8696052e-08, Final residual = 4.8696052e-08, No Iterations 0
ExecutionTime = 0.02 s  ClockTime = 0 s

Time = 1

DICPCG:  Solving for T, Initial residual = 0.0088871538, Final residual = 4.6453601e-08, No Iterations 4
DICPCG:  Solving for T, Initial residual = 4.5910251e-08, Final residual = 4.5910251e-08, No Iterations 0
DICPCG:  Solving for T, Initial residual = 4.5910251e-08, Final residual = 4.5910251e-08, No Iterations 0
ExecutionTime = 0.02 s  ClockTime = 0 s

runTime.value(): 1
snapshotsTime: 1
Time = 1.05

DICPCG:  Solving for T, Initial residual = 0.0085228129, Final residual = 9.5243639e-07, No Iterations 3
DICPCG:  Solving for T, Initial residual = 9.4204245e-07, Final residual = 9.4204245e-07, No Iterations 0
DICPCG:  Solving for T, Initial residual = 9.4204245e-07, Final residual = 9.4204245e-07, No Iterations 0
ExecutionTime = 0.02 s  ClockTime = 0 s

Time = 1.1

DICPCG:  Solving for T, Initial residual = 0.0081948852, Final residual = 9.0087022e-07, No Iterations 3
DICPCG:  Solving for T, Initial residual = 8.9167141e-07, Final residual = 8.9167141e-07, No Iterations 0
DICPCG:  Solving for T, Initial residual = 8.9167141e-07, Final residual = 8.9167141e-07, No Iterations 0
ExecutionTime = 0.02 s  ClockTime = 0 s

Time = 1.15

DICPCG:  Solving for T, Initial residual = 0.0078981665, Final residual = 8.5372638e-07, No Iterations 3
DICPCG:  Solving for T, Initial residual = 8.4554786e-07, Final residual = 8.4554786e-07, No Iterations 0
DICPCG:  Solving for T, Initial residual = 8.4554786e-07, Final residual = 8.4554786e-07, No Iterations 0
ExecutionTime = 0.02 s  ClockTime = 0 s

Time = 1.2

DICPCG:  Solving for T, Initial residual = 0.007628376, Final residual = 8.1070885e-07, No Iterations 3
DICPCG:  Solving for T, Initial residual = 8.0340441e-07, Final residual = 8.0340441e-07, No Iterations 0
DICPCG:  Solving for T, Initial residual = 8.0340441e-07, Final residual = 8.0340441e-07, No Iterations 0
ExecutionTime = 0.02 s  ClockTime = 0 s

Time = 1.25

DICPCG:  Solving for T, Initial residual = 0.0073819781, Final residual = 7.7174411e-07, No Iterations 3
DICPCG:  Solving for T, Initial residual = 7.6518921e-07, Final residual = 7.6518921e-07, No Iterations 0
DICPCG:  Solving for T, Initial residual = 7.6518921e-07, Final residual = 7.6518921e-07, No Iterations 0
ExecutionTime = 0.02 s  ClockTime = 0 s

Time = 1.3

DICPCG:  Solving for T, Initial residual = 0.0071493063, Final residual = 7.3603701e-07, No Iterations 3
DICPCG:  Solving for T, Initial residual = 7.3047081e-07, Final residual = 7.3047081e-07, No Iterations 0
DICPCG:  Solving for T, Initial residual = 7.3047081e-07, Final residual = 7.3047081e-07, No Iterations 0
ExecutionTime = 0.02 s  ClockTime = 0 s

Time = 1.35

DICPCG:  Solving for T, Initial residual = 0.0069323195, Final residual = 7.0334662e-07, No Iterations 3
DICPCG:  Solving for T, Initial residual = 6.977169e-07, Final residual = 6.977169e-07, No Iterations 0
DICPCG:  Solving for T, Initial residual = 6.977169e-07, Final residual = 6.977169e-07, No Iterations 0
ExecutionTime = 0.02 s  ClockTime = 0 s

Time = 1.4

DICPCG:  Solving for T, Initial residual = 0.0067261754, Final residual = 6.7354121e-07, No Iterations 3
DICPCG:  Solving for T, Initial residual = 6.6843127e-07, Final residual = 6.6843127e-07, No Iterations 0
DICPCG:  Solving for T, Initial residual = 6.6843127e-07, Final residual = 6.6843127e-07, No Iterations 0
ExecutionTime = 0.02 s  ClockTime = 0 s

Time = 1.45

DICPCG:  Solving for T, Initial residual = 0.0065353952, Final residual = 6.4577623e-07, No Iterations 3
DICPCG:  Solving for T, Initial residual = 6.4112543e-07, Final residual = 6.4112543e-07, No Iterations 0
DICPCG:  Solving for T, Initial residual = 6.4112543e-07, Final residual = 6.4112543e-07, No Iterations 0
ExecutionTime = 0.02 s  ClockTime = 0 s

Time = 1.5

DICPCG:  Solving for T, Initial residual = 0.0063583162, Final residual = 6.1989502e-07, No Iterations 3
DICPCG:  Solving for T, Initial residual = 6.1565097e-07, Final residual = 6.1565097e-07, No Iterations 0
DICPCG:  Solving for T, Initial residual = 6.1565097e-07, Final residual = 6.1565097e-07, No Iterations 0
ExecutionTime = 0.02 s  ClockTime = 0 s

Time = 1.55

DICPCG:  Solving for T, Initial residual = 0.006193504, Final residual = 5.9566172e-07, No Iterations 3
DICPCG:  Solving for T, Initial residual = 5.9177961e-07, Final residual = 5.9177961e-07, No Iterations 0
DICPCG:  Solving for T, Initial residual = 5.9177961e-07, Final residual = 5.9177961e-07, No Iterations 0
ExecutionTime = 0.02 s  ClockTime = 0 s

Time = 1.6

DICPCG:  Solving for T, Initial residual = 0.0060397152, Final residual = 5.730277e-07, No Iterations 3
DICPCG:  Solving for T, Initial residual = 5.6946804e-07, Final residual = 5.6946804e-07, No Iterations 0
DICPCG:  Solving for T, Initial residual = 5.6946804e-07, Final residual = 5.6946804e-07, No Iterations 0
ExecutionTime = 0.02 s  ClockTime = 0 s

Time = 1.65

DICPCG:  Solving for T, Initial residual = 0.0058958661, Final residual = 5.5202695e-07, No Iterations 3
DICPCG:  Solving for T, Initial residual = 5.4875439e-07, Final residual = 5.4875439e-07, No Iterations 0
DICPCG:  Solving for T, Initial residual = 5.4875439e-07, Final residual = 5.4875439e-07, No Iterations 0
ExecutionTime = 0.02 s  ClockTime = 0 s

Time = 1.7

DICPCG:  Solving for T, Initial residual = 0.0057610086, Final residual = 5.3292651e-07, No Iterations 3
DICPCG:  Solving for T, Initial residual = 5.2990801e-07, Final residual = 5.2990801e-07, No Iterations 0
DICPCG:  Solving for T, Initial residual = 5.2990801e-07, Final residual = 5.2990801e-07, No Iterations 0
ExecutionTime = 0.02 s  ClockTime = 0 s

Time = 1.75

DICPCG:  Solving for T, Initial residual = 0.0056343091, Final residual = 5.1552505e-07, No Iterations 3
DICPCG:  Solving for T, Initial residual = 5.127322e-07, Final residual = 5.127322e-07, No Iterations 0
DICPCG:  Solving for T, Initial residual = 5.127322e-07, Final residual = 5.127322e-07, No Iterations 0
ExecutionTime = 0.02 s  ClockTime = 0 s

Time = 1.8

DICPCG:  Solving for T, Initial residual = 0.0055150321, Final residual = 4.994863e-07, No Iterations 3
DICPCG:  Solving for T, Initial residual = 4.9689539e-07, Final residual = 4.9689539e-07, No Iterations 0
DICPCG:  Solving for T, Initial residual = 4.9689539e-07, Final residual = 4.9689539e-07, No Iterations 0
ExecutionTime = 0.02 s  ClockTime = 0 s

Time = 1.85

DICPCG:  Solving for T, Initial residual = 0.0054025259, Final residual = 4.8426759e-07, No Iterations 3
DICPCG:  Solving for T, Initial residual = 4.8186003e-07, Final residual = 4.8186003e-07, No Iterations 0
DICPCG:  Solving for T, Initial residual = 4.8186003e-07, Final residual = 4.8186003e-07, No Iterations 0
ExecutionTime = 0.02 s  ClockTime = 0 s

Time = 1.9

DICPCG:  Solving for T, Initial residual = 0.0052962113, Final residual = 4.6982687e-07, No Iterations 3
DICPCG:  Solving for T, Initial residual = 4.6758606e-07, Final residual = 4.6758606e-07, No Iterations 0
DICPCG:  Solving for T, Initial residual = 4.6758606e-07, Final residual = 4.6758606e-07, No Iterations 0
ExecutionTime = 0.03 s  ClockTime = 0 s

Time = 1.95

DICPCG:  Solving for T, Initial residual = 0.0051955716, Final residual = 4.5647229e-07, No Iterations 3
DICPCG:  Solving for T, Initial residual = 4.5438177e-07, Final residual = 4.5438177e-07, No Iterations 0
DICPCG:  Solving for T, Initial residual = 4.5438177e-07, Final residual = 4.5438177e-07, No Iterations 0
ExecutionTime = 0.03 s  ClockTime = 0 s

Time = 2

DICPCG:  Solving for T, Initial residual = 0.0051001446, Final residual = 4.4390875e-07, No Iterations 3
DICPCG:  Solving for T, Initial residual = 4.4195494e-07, Final residual = 4.4195494e-07, No Iterations 0
DICPCG:  Solving for T, Initial residual = 4.4195494e-07, Final residual = 4.4195494e-07, No Iterations 0
ExecutionTime = 0.03 s  ClockTime = 0 s

runTime.value(): 2
snapshotsTime: 2
Time = 2.05

DICPCG:  Solving for T, Initial residual = 0.0050095152, Final residual = 4.3191805e-07, No Iterations 3
DICPCG:  Solving for T, Initial residual = 4.3008952e-07, Final residual = 4.3008952e-07, No Iterations 0
DICPCG:  Solving for T, Initial residual = 4.3008952e-07, Final residual = 4.3008952e-07, No Iterations 0
ExecutionTime = 0.03 s  ClockTime = 0 s

Time = 2.1

DICPCG:  Solving for T, Initial residual = 0.0049233102, Final residual = 4.2051987e-07, No Iterations 3
DICPCG:  Solving for T, Initial residual = 4.1880614e-07, Final residual = 4.1880614e-07, No Iterations 0
DICPCG:  Solving for T, Initial residual = 4.1880614e-07, Final residual = 4.1880614e-07, No Iterations 0
ExecutionTime = 0.03 s  ClockTime = 0 s

Time = 2.15

DICPCG:  Solving for T, Initial residual = 0.0048411926, Final residual = 4.0979341e-07, No Iterations 3
DICPCG:  Solving for T, Initial residual = 4.0818459e-07, Final residual = 4.0818459e-07, No Iterations 0
DICPCG:  Solving for T, Initial residual = 4.0818459e-07, Final residual = 4.0818459e-07, No Iterations 0
ExecutionTime = 0.03 s  ClockTime = 0 s

Time = 2.2

DICPCG:  Solving for T, Initial residual = 0.0047617633, Final residual = 3.9937924e-07, No Iterations 3
DICPCG:  Solving for T, Initial residual = 3.9795909e-07, Final residual = 3.9795909e-07, No Iterations 0
DICPCG:  Solving for T, Initial residual = 3.9795909e-07, Final residual = 3.9795909e-07, No Iterations 0
ExecutionTime = 0.03 s  ClockTime = 0 s

Time = 2.25

DICPCG:  Solving for T, Initial residual = 0.0046843682, Final residual = 3.8941652e-07, No Iterations 3
DICPCG:  Solving for T, Initial residual = 3.8805177e-07, Final residual = 3.8805177e-07, No Iterations 0
DICPCG:  Solving for T, Initial residual = 3.8805177e-07, Final residual = 3.8805177e-07, No Iterations 0
ExecutionTime = 0.03 s  ClockTime = 0 s

Time = 2.3

DICPCG:  Solving for T, Initial residual = 0.0046089153, Final residual = 3.7974713e-07, No Iterations 3
DICPCG:  Solving for T, Initial residual = 3.7837712e-07, Final residual = 3.7837712e-07, No Iterations 0
DICPCG:  Solving for T, Initial residual = 3.7837712e-07, Final residual = 3.7837712e-07, No Iterations 0
ExecutionTime = 0.03 s  ClockTime = 0 s

Time = 2.35

DICPCG:  Solving for T, Initial residual = 0.0045356518, Final residual = 3.7040821e-07, No Iterations 3
DICPCG:  Solving for T, Initial residual = 3.6911962e-07, Final residual = 3.6911962e-07, No Iterations 0
DICPCG:  Solving for T, Initial residual = 3.6911962e-07, Final residual = 3.6911962e-07, No Iterations 0
ExecutionTime = 0.03 s  ClockTime = 0 s

Time = 2.4

DICPCG:  Solving for T, Initial residual = 0.0044654719, Final residual = 3.6144898e-07, No Iterations 3
DICPCG:  Solving for T, Initial residual = 3.6023582e-07, Final residual = 3.6023582e-07, No Iterations 0
DICPCG:  Solving for T, Initial residual = 3.6023582e-07, Final residual = 3.6023582e-07, No Iterations 0
ExecutionTime = 0.03 s  ClockTime = 0 s

Time = 2.45

DICPCG:  Solving for T, Initial residual = 0.0043981668, Final residual = 3.5285419e-07, No Iterations 3
DICPCG:  Solving for T, Initial residual = 3.5171097e-07, Final residual = 3.5171097e-07, No Iterations 0
DICPCG:  Solving for T, Initial residual = 3.5171097e-07, Final residual = 3.5171097e-07, No Iterations 0
ExecutionTime = 0.03 s  ClockTime = 0 s

Time = 2.5

DICPCG:  Solving for T, Initial residual = 0.0043335451, Final residual = 3.4477849e-07, No Iterations 3
DICPCG:  Solving for T, Initial residual = 3.4369966e-07, Final residual = 3.4369966e-07, No Iterations 0
DICPCG:  Solving for T, Initial residual = 3.4369966e-07, Final residual = 3.4369966e-07, No Iterations 0
ExecutionTime = 0.03 s  ClockTime = 0 s

Time = 2.55

DICPCG:  Solving for T, Initial residual = 0.0042714311, Final residual = 3.3718337e-07, No Iterations 3
DICPCG:  Solving for T, Initial residual = 3.3616391e-07, Final residual = 3.3616391e-07, No Iterations 0
DICPCG:  Solving for T, Initial residual = 3.3616391e-07, Final residual = 3.3616391e-07, No Iterations 0
ExecutionTime = 0.03 s  ClockTime = 0 s

Time = 2.6

DICPCG:  Solving for T, Initial residual = 0.0042116636, Final residual = 3.299561e-07, No Iterations 3
DICPCG:  Solving for T, Initial residual = 3.2899171e-07, Final residual = 3.2899171e-07, No Iterations 0
DICPCG:  Solving for T, Initial residual = 3.2899171e-07, Final residual = 3.2899171e-07, No Iterations 0
ExecutionTime = 0.03 s  ClockTime = 0 s

Time = 2.65

DICPCG:  Solving for T, Initial residual = 0.0041540942, Final residual = 3.2296024e-07, No Iterations 3
DICPCG:  Solving for T, Initial residual = 3.2204732e-07, Final residual = 3.2204732e-07, No Iterations 0
DICPCG:  Solving for T, Initial residual = 3.2204732e-07, Final residual = 3.2204732e-07, No Iterations 0
ExecutionTime = 0.03 s  ClockTime = 0 s

Time = 2.7

DICPCG:  Solving for T, Initial residual = 0.0040985861, Final residual = 3.1617466e-07, No Iterations 3
DICPCG:  Solving for T, Initial residual = 3.1530992e-07, Final residual = 3.1530992e-07, No Iterations 0
DICPCG:  Solving for T, Initial residual = 3.1530992e-07, Final residual = 3.1530992e-07, No Iterations 0
ExecutionTime = 0.03 s  ClockTime = 0 s

Time = 2.75

DICPCG:  Solving for T, Initial residual = 0.004045013, Final residual = 3.0971632e-07, No Iterations 3
DICPCG:  Solving for T, Initial residual = 3.0889637e-07, Final residual = 3.0889637e-07, No Iterations 0
DICPCG:  Solving for T, Initial residual = 3.0889637e-07, Final residual = 3.0889637e-07, No Iterations 0
ExecutionTime = 0.03 s  ClockTime = 0 s

Time = 2.8

DICPCG:  Solving for T, Initial residual = 0.0039932582, Final residual = 3.0352417e-07, No Iterations 3
DICPCG:  Solving for T, Initial residual = 3.0274603e-07, Final residual = 3.0274603e-07, No Iterations 0
DICPCG:  Solving for T, Initial residual = 3.0274603e-07, Final residual = 3.0274603e-07, No Iterations 0
ExecutionTime = 0.03 s  ClockTime = 0 s

Time = 2.85

DICPCG:  Solving for T, Initial residual = 0.003943214, Final residual = 2.9751918e-07, No Iterations 3
DICPCG:  Solving for T, Initial residual = 2.9678027e-07, Final residual = 2.9678027e-07, No Iterations 0
DICPCG:  Solving for T, Initial residual = 2.9678027e-07, Final residual = 2.9678027e-07, No Iterations 0
ExecutionTime = 0.03 s  ClockTime = 0 s

Time = 2.9

DICPCG:  Solving for T, Initial residual = 0.0038947803, Final residual = 2.9171286e-07, No Iterations 3
DICPCG:  Solving for T, Initial residual = 2.9101073e-07, Final residual = 2.9101073e-07, No Iterations 0
DICPCG:  Solving for T, Initial residual = 2.9101073e-07, Final residual = 2.9101073e-07, No Iterations 0
ExecutionTime = 0.03 s  ClockTime = 0 s

Time = 2.95

DICPCG:  Solving for T, Initial residual = 0.0038478644, Final residual = 2.8607506e-07, No Iterations 3
DICPCG:  Solving for T, Initial residual = 2.8540751e-07, Final residual = 2.8540751e-07, No Iterations 0
DICPCG:  Solving for T, Initial residual = 2.8540751e-07, Final residual = 2.8540751e-07, No Iterations 0
ExecutionTime = 0.03 s  ClockTime = 0 s

Time = 3

DICPCG:  Solving for T, Initial residual = 0.0038023804, Final residual = 2.8065684e-07, No Iterations 3
DICPCG:  Solving for T, Initial residual = 2.8002169e-07, Final residual = 2.8002169e-07, No Iterations 0
DICPCG:  Solving for T, Initial residual = 2.8002169e-07, Final residual = 2.8002169e-07, No Iterations 0
ExecutionTime = 0.03 s  ClockTime = 0 s

Time = 3.05

DICPCG:  Solving for T, Initial residual = 0.0037582483, Final residual = 2.7555588e-07, No Iterations 3
DICPCG:  Solving for T, Initial residual = 2.7495086e-07, Final residual = 2.7495086e-07, No Iterations 0
DICPCG:  Solving for T, Initial residual = 2.7495086e-07, Final residual = 2.7495086e-07, No Iterations 0
ExecutionTime = 0.04 s  ClockTime = 0 s

runTime.value(): 3.05
snapshotsTime: 3
Time = 3.1

DICPCG:  Solving for T, Initial residual = 0.0037153937, Final residual = 2.7063533e-07, No Iterations 3
DICPCG:  Solving for T, Initial residual = 2.7005863e-07, Final residual = 2.7005863e-07, No Iterations 0
DICPCG:  Solving for T, Initial residual = 2.7005863e-07, Final residual = 2.7005863e-07, No Iterations 0
ExecutionTime = 0.04 s  ClockTime = 0 s

Time = 3.15

DICPCG:  Solving for T, Initial residual = 0.0036737475, Final residual = 2.6595002e-07, No Iterations 3
DICPCG:  Solving for T, Initial residual = 2.6539982e-07, Final residual = 2.6539982e-07, No Iterations 0
DICPCG:  Solving for T, Initial residual = 2.6539982e-07, Final residual = 2.6539982e-07, No Iterations 0
ExecutionTime = 0.04 s  ClockTime = 0 s

Time = 3.2

DICPCG:  Solving for T, Initial residual = 0.0036332451, Final residual = 2.61377e-07, No Iterations 3
DICPCG:  Solving for T, Initial residual = 2.6085185e-07, Final residual = 2.6085185e-07, No Iterations 0
DICPCG:  Solving for T, Initial residual = 2.6085185e-07, Final residual = 2.6085185e-07, No Iterations 0
ExecutionTime = 0.04 s  ClockTime = 0 s

Time = 3.25

DICPCG:  Solving for T, Initial residual = 0.0035938265, Final residual = 2.5694574e-07, No Iterations 3
DICPCG:  Solving for T, Initial residual = 2.5644423e-07, Final residual = 2.5644423e-07, No Iterations 0
DICPCG:  Solving for T, Initial residual = 2.5644423e-07, Final residual = 2.5644423e-07, No Iterations 0
ExecutionTime = 0.04 s  ClockTime = 0 s

Time = 3.3

DICPCG:  Solving for T, Initial residual = 0.0035554353, Final residual = 2.5278842e-07, No Iterations 3
DICPCG:  Solving for T, Initial residual = 2.5230894e-07, Final residual = 2.5230894e-07, No Iterations 0
DICPCG:  Solving for T, Initial residual = 2.5230894e-07, Final residual = 2.5230894e-07, No Iterations 0
ExecutionTime = 0.04 s  ClockTime = 0 s

Time = 3.35

DICPCG:  Solving for T, Initial residual = 0.0035180193, Final residual = 2.4873795e-07, No Iterations 3
DICPCG:  Solving for T, Initial residual = 2.4827933e-07, Final residual = 2.4827933e-07, No Iterations 0
DICPCG:  Solving for T, Initial residual = 2.4827933e-07, Final residual = 2.4827933e-07, No Iterations 0
ExecutionTime = 0.04 s  ClockTime = 0 s

Time = 3.4

DICPCG:  Solving for T, Initial residual = 0.0034815292, Final residual = 2.4477757e-07, No Iterations 3
DICPCG:  Solving for T, Initial residual = 2.4433873e-07, Final residual = 2.4433873e-07, No Iterations 0
DICPCG:  Solving for T, Initial residual = 2.4433873e-07, Final residual = 2.4433873e-07, No Iterations 0
ExecutionTime = 0.04 s  ClockTime = 0 s

Time = 3.45

DICPCG:  Solving for T, Initial residual = 0.0034459194, Final residual = 2.4090522e-07, No Iterations 3
DICPCG:  Solving for T, Initial residual = 2.4048514e-07, Final residual = 2.4048514e-07, No Iterations 0
DICPCG:  Solving for T, Initial residual = 2.4048514e-07, Final residual = 2.4048514e-07, No Iterations 0
ExecutionTime = 0.04 s  ClockTime = 0 s

Time = 3.5

DICPCG:  Solving for T, Initial residual = 0.0034111467, Final residual = 2.3719509e-07, No Iterations 3
DICPCG:  Solving for T, Initial residual = 2.3679268e-07, Final residual = 2.3679268e-07, No Iterations 0
DICPCG:  Solving for T, Initial residual = 2.3679268e-07, Final residual = 2.3679268e-07, No Iterations 0
ExecutionTime = 0.04 s  ClockTime = 0 s

Time = 3.55

DICPCG:  Solving for T, Initial residual = 0.003377171, Final residual = 2.3360004e-07, No Iterations 3
DICPCG:  Solving for T, Initial residual = 2.3321435e-07, Final residual = 2.3321435e-07, No Iterations 0
DICPCG:  Solving for T, Initial residual = 2.3321435e-07, Final residual = 2.3321435e-07, No Iterations 0
ExecutionTime = 0.04 s  ClockTime = 0 s

Time = 3.6

DICPCG:  Solving for T, Initial residual = 0.0033439546, Final residual = 2.3011361e-07, No Iterations 3
DICPCG:  Solving for T, Initial residual = 2.2974377e-07, Final residual = 2.2974377e-07, No Iterations 0
DICPCG:  Solving for T, Initial residual = 2.2974377e-07, Final residual = 2.2974377e-07, No Iterations 0
ExecutionTime = 0.04 s  ClockTime = 0 s

Time = 3.65

DICPCG:  Solving for T, Initial residual = 0.0033114619, Final residual = 2.2672533e-07, No Iterations 3
DICPCG:  Solving for T, Initial residual = 2.2637051e-07, Final residual = 2.2637051e-07, No Iterations 0
DICPCG:  Solving for T, Initial residual = 2.2637051e-07, Final residual = 2.2637051e-07, No Iterations 0
ExecutionTime = 0.04 s  ClockTime = 0 s

Time = 3.7

DICPCG:  Solving for T, Initial residual = 0.0032796598, Final residual = 2.2342354e-07, No Iterations 3
DICPCG:  Solving for T, Initial residual = 2.2308299e-07, Final residual = 2.2308299e-07, No Iterations 0
DICPCG:  Solving for T, Initial residual = 2.2308299e-07, Final residual = 2.2308299e-07, No Iterations 0
ExecutionTime = 0.04 s  ClockTime = 0 s

Time = 3.75

DICPCG:  Solving for T, Initial residual = 0.0032485171, Final residual = 2.201999e-07, No Iterations 3
DICPCG:  Solving for T, Initial residual = 2.1987292e-07, Final residual = 2.1987292e-07, No Iterations 0
DICPCG:  Solving for T, Initial residual = 2.1987292e-07, Final residual = 2.1987292e-07, No Iterations 0
ExecutionTime = 0.04 s  ClockTime = 0 s

Time = 3.8

DICPCG:  Solving for T, Initial residual = 0.0032180043, Final residual = 2.1708995e-07, No Iterations 3
DICPCG:  Solving for T, Initial residual = 2.1677582e-07, Final residual = 2.1677582e-07, No Iterations 0
DICPCG:  Solving for T, Initial residual = 2.1677582e-07, Final residual = 2.1677582e-07, No Iterations 0
ExecutionTime = 0.04 s  ClockTime = 0 s

Time = 3.85

DICPCG:  Solving for T, Initial residual = 0.003187521, Final residual = 2.1407738e-07, No Iterations 3
DICPCG:  Solving for T, Initial residual = 2.1381387e-07, Final residual = 2.1381387e-07, No Iterations 0
DICPCG:  Solving for T, Initial residual = 2.1381387e-07, Final residual = 2.1381387e-07, No Iterations 0
ExecutionTime = 0.04 s  ClockTime = 0 s

Time = 3.9

DICPCG:  Solving for T, Initial residual = 0.0031573954, Final residual = 2.1111056e-07, No Iterations 3
DICPCG:  Solving for T, Initial residual = 2.108613e-07, Final residual = 2.108613e-07, No Iterations 0
DICPCG:  Solving for T, Initial residual = 2.108613e-07, Final residual = 2.108613e-07, No Iterations 0
ExecutionTime = 0.04 s  ClockTime = 0 s

Time = 3.95

DICPCG:  Solving for T, Initial residual = 0.0031274792, Final residual = 2.0820388e-07, No Iterations 3
DICPCG:  Solving for T, Initial residual = 2.0793727e-07, Final residual = 2.0793727e-07, No Iterations 0
DICPCG:  Solving for T, Initial residual = 2.0793727e-07, Final residual = 2.0793727e-07, No Iterations 0
ExecutionTime = 0.04 s  ClockTime = 0 s

Time = 4

DICPCG:  Solving for T, Initial residual = 0.0030977187, Final residual = 2.0538804e-07, No Iterations 3
DICPCG:  Solving for T, Initial residual = 2.0513222e-07, Final residual = 2.0513222e-07, No Iterations 0
DICPCG:  Solving for T, Initial residual = 2.0513222e-07, Final residual = 2.0513222e-07, No Iterations 0
ExecutionTime = 0.04 s  ClockTime = 0 s

Time = 4.05

DICPCG:  Solving for T, Initial residual = 0.00306852, Final residual = 2.0265877e-07, No Iterations 3
DICPCG:  Solving for T, Initial residual = 2.0241319e-07, Final residual = 2.0241319e-07, No Iterations 0
DICPCG:  Solving for T, Initial residual = 2.0241319e-07, Final residual = 2.0241319e-07, No Iterations 0
ExecutionTime = 0.04 s  ClockTime = 0 s

runTime.value(): 4.05
snapshotsTime: 4
Time = 4.1

DICPCG:  Solving for T, Initial residual = 0.0030398605, Final residual = 1.9999234e-07, No Iterations 3
DICPCG:  Solving for T, Initial residual = 1.9975652e-07, Final residual = 1.9975652e-07, No Iterations 0
DICPCG:  Solving for T, Initial residual = 1.9975652e-07, Final residual = 1.9975652e-07, No Iterations 0
ExecutionTime = 0.04 s  ClockTime = 0 s

Time = 4.15

DICPCG:  Solving for T, Initial residual = 0.0030117187, Final residual = 1.9738345e-07, No Iterations 3
DICPCG:  Solving for T, Initial residual = 1.9715693e-07, Final residual = 1.9715693e-07, No Iterations 0
DICPCG:  Solving for T, Initial residual = 1.9715693e-07, Final residual = 1.9715693e-07, No Iterations 0
ExecutionTime = 0.04 s  ClockTime = 0 s

Time = 4.2

DICPCG:  Solving for T, Initial residual = 0.0029840743, Final residual = 1.948394e-07, No Iterations 3
DICPCG:  Solving for T, Initial residual = 1.9462175e-07, Final residual = 1.9462175e-07, No Iterations 0
DICPCG:  Solving for T, Initial residual = 1.9462175e-07, Final residual = 1.9462175e-07, No Iterations 0
ExecutionTime = 0.04 s  ClockTime = 0 s

Time = 4.25

DICPCG:  Solving for T, Initial residual = 0.0029569082, Final residual = 1.9238767e-07, No Iterations 3
DICPCG:  Solving for T, Initial residual = 1.9217843e-07, Final residual = 1.9217843e-07, No Iterations 0
DICPCG:  Solving for T, Initial residual = 1.9217843e-07, Final residual = 1.9217843e-07, No Iterations 0
ExecutionTime = 0.05 s  ClockTime = 0 s

Time = 4.3

DICPCG:  Solving for T, Initial residual = 0.0029302023, Final residual = 1.9000946e-07, No Iterations 3
DICPCG:  Solving for T, Initial residual = 1.8980822e-07, Final residual = 1.8980822e-07, No Iterations 0
DICPCG:  Solving for T, Initial residual = 1.8980822e-07, Final residual = 1.8980822e-07, No Iterations 0
ExecutionTime = 0.05 s  ClockTime = 0 s

Time = 4.35

DICPCG:  Solving for T, Initial residual = 0.0029039395, Final residual = 1.8768173e-07, No Iterations 3
DICPCG:  Solving for T, Initial residual = 1.8748814e-07, Final residual = 1.8748814e-07, No Iterations 0
DICPCG:  Solving for T, Initial residual = 1.8748814e-07, Final residual = 1.8748814e-07, No Iterations 0
ExecutionTime = 0.05 s  ClockTime = 0 s

Time = 4.4

DICPCG:  Solving for T, Initial residual = 0.0028781036, Final residual = 1.854046e-07, No Iterations 3
DICPCG:  Solving for T, Initial residual = 1.8521831e-07, Final residual = 1.8521831e-07, No Iterations 0
DICPCG:  Solving for T, Initial residual = 1.8521831e-07, Final residual = 1.8521831e-07, No Iterations 0
ExecutionTime = 0.05 s  ClockTime = 0 s

Time = 4.45

DICPCG:  Solving for T, Initial residual = 0.0028526793, Final residual = 1.8321782e-07, No Iterations 3
DICPCG:  Solving for T, Initial residual = 1.8303846e-07, Final residual = 1.8303846e-07, No Iterations 0
DICPCG:  Solving for T, Initial residual = 1.8303846e-07, Final residual = 1.8303846e-07, No Iterations 0
ExecutionTime = 0.05 s  ClockTime = 0 s

Time = 4.5

DICPCG:  Solving for T, Initial residual = 0.0028276519, Final residual = 1.8108472e-07, No Iterations 3
DICPCG:  Solving for T, Initial residual = 1.8091197e-07, Final residual = 1.8091197e-07, No Iterations 0
DICPCG:  Solving for T, Initial residual = 1.8091197e-07, Final residual = 1.8091197e-07, No Iterations 0
ExecutionTime = 0.05 s  ClockTime = 0 s

Time = 4.55

DICPCG:  Solving for T, Initial residual = 0.0028030076, Final residual = 1.7904204e-07, No Iterations 3
DICPCG:  Solving for T, Initial residual = 1.7887559e-07, Final residual = 1.7887559e-07, No Iterations 0
DICPCG:  Solving for T, Initial residual = 1.7887559e-07, Final residual = 1.7887559e-07, No Iterations 0
ExecutionTime = 0.05 s  ClockTime = 0 s

Time = 4.6

DICPCG:  Solving for T, Initial residual = 0.0027787335, Final residual = 1.7708025e-07, No Iterations 3
DICPCG:  Solving for T, Initial residual = 1.7691976e-07, Final residual = 1.7691976e-07, No Iterations 0
DICPCG:  Solving for T, Initial residual = 1.7691976e-07, Final residual = 1.7691976e-07, No Iterations 0
ExecutionTime = 0.05 s  ClockTime = 0 s

Time = 4.65

DICPCG:  Solving for T, Initial residual = 0.002754817, Final residual = 1.7516768e-07, No Iterations 3
DICPCG:  Solving for T, Initial residual = 1.7501291e-07, Final residual = 1.7501291e-07, No Iterations 0
DICPCG:  Solving for T, Initial residual = 1.7501291e-07, Final residual = 1.7501291e-07, No Iterations 0
ExecutionTime = 0.05 s  ClockTime = 0 s

Time = 4.7

DICPCG:  Solving for T, Initial residual = 0.0027312464, Final residual = 1.7328787e-07, No Iterations 3
DICPCG:  Solving for T, Initial residual = 1.7313857e-07, Final residual = 1.7313857e-07, No Iterations 0
DICPCG:  Solving for T, Initial residual = 1.7313857e-07, Final residual = 1.7313857e-07, No Iterations 0
ExecutionTime = 0.05 s  ClockTime = 0 s

Time = 4.75

DICPCG:  Solving for T, Initial residual = 0.0027080104, Final residual = 1.7144009e-07, No Iterations 3
DICPCG:  Solving for T, Initial residual = 1.7129603e-07, Final residual = 1.7129603e-07, No Iterations 0
DICPCG:  Solving for T, Initial residual = 1.7129603e-07, Final residual = 1.7129603e-07, No Iterations 0
ExecutionTime = 0.05 s  ClockTime = 0 s

Time = 4.8

DICPCG:  Solving for T, Initial residual = 0.0026850984, Final residual = 1.6963082e-07, No Iterations 3
DICPCG:  Solving for T, Initial residual = 1.6949179e-07, Final residual = 1.6949179e-07, No Iterations 0
DICPCG:  Solving for T, Initial residual = 1.6949179e-07, Final residual = 1.6949179e-07, No Iterations 0
ExecutionTime = 0.05 s  ClockTime = 0 s

Time = 4.85

DICPCG:  Solving for T, Initial residual = 0.0026625003, Final residual = 1.6786523e-07, No Iterations 3
DICPCG:  Solving for T, Initial residual = 1.6773101e-07, Final residual = 1.6773101e-07, No Iterations 0
DICPCG:  Solving for T, Initial residual = 1.6773101e-07, Final residual = 1.6773101e-07, No Iterations 0
ExecutionTime = 0.05 s  ClockTime = 0 s

Time = 4.9

DICPCG:  Solving for T, Initial residual = 0.0026402064, Final residual = 1.6612886e-07, No Iterations 3
DICPCG:  Solving for T, Initial residual = 1.6599925e-07, Final residual = 1.6599925e-07, No Iterations 0
DICPCG:  Solving for T, Initial residual = 1.6599925e-07, Final residual = 1.6599925e-07, No Iterations 0
ExecutionTime = 0.05 s  ClockTime = 0 s

Time = 4.95

DICPCG:  Solving for T, Initial residual = 0.0026182076, Final residual = 1.6444617e-07, No Iterations 3
DICPCG:  Solving for T, Initial residual = 1.6432097e-07, Final residual = 1.6432097e-07, No Iterations 0
DICPCG:  Solving for T, Initial residual = 1.6432097e-07, Final residual = 1.6432097e-07, No Iterations 0
ExecutionTime = 0.05 s  ClockTime = 0 s

Time = 5

DICPCG:  Solving for T, Initial residual = 0.0025964951, Final residual = 1.6280515e-07, No Iterations 3
DICPCG:  Solving for T, Initial residual = 1.6268416e-07, Final residual = 1.6268416e-07, No Iterations 0
DICPCG:  Solving for T, Initial residual = 1.6268416e-07, Final residual = 1.6268416e-07, No Iterations 0
ExecutionTime = 0.05 s  ClockTime = 0 s

Time = 5.05

DICPCG:  Solving for T, Initial residual = 0.0025750606, Final residual = 1.6118983e-07, No Iterations 3
DICPCG:  Solving for T, Initial residual = 1.610729e-07, Final residual = 1.610729e-07, No Iterations 0
DICPCG:  Solving for T, Initial residual = 1.610729e-07, Final residual = 1.610729e-07, No Iterations 0
ExecutionTime = 0.05 s  ClockTime = 0 s

runTime.value(): 5.05
snapshotsTime: 5
Time = 5.1

DICPCG:  Solving for T, Initial residual = 0.0025538961, Final residual = 1.5962626e-07, No Iterations 3
DICPCG:  Solving for T, Initial residual = 1.595132e-07, Final residual = 1.595132e-07, No Iterations 0
DICPCG:  Solving for T, Initial residual = 1.595132e-07, Final residual = 1.595132e-07, No Iterations 0
ExecutionTime = 0.05 s  ClockTime = 0 s

Time = 5.15

DICPCG:  Solving for T, Initial residual = 0.0025329941, Final residual = 1.581023e-07, No Iterations 3
DICPCG:  Solving for T, Initial residual = 1.5799295e-07, Final residual = 1.5799295e-07, No Iterations 0
DICPCG:  Solving for T, Initial residual = 1.5799295e-07, Final residual = 1.5799295e-07, No Iterations 0
ExecutionTime = 0.05 s  ClockTime = 0 s

Time = 5.2

DICPCG:  Solving for T, Initial residual = 0.0025123474, Final residual = 1.5661076e-07, No Iterations 3
DICPCG:  Solving for T, Initial residual = 1.5650497e-07, Final residual = 1.5650497e-07, No Iterations 0
DICPCG:  Solving for T, Initial residual = 1.5650497e-07, Final residual = 1.5650497e-07, No Iterations 0
ExecutionTime = 0.05 s  ClockTime = 0 s

Time = 5.25

DICPCG:  Solving for T, Initial residual = 0.0024919491, Final residual = 1.5514644e-07, No Iterations 3
DICPCG:  Solving for T, Initial residual = 1.5504407e-07, Final residual = 1.5504407e-07, No Iterations 0
DICPCG:  Solving for T, Initial residual = 1.5504407e-07, Final residual = 1.5504407e-07, No Iterations 0
ExecutionTime = 0.05 s  ClockTime = 0 s

Time = 5.3

DICPCG:  Solving for T, Initial residual = 0.0024717925, Final residual = 1.5372551e-07, No Iterations 3
DICPCG:  Solving for T, Initial residual = 1.5362641e-07, Final residual = 1.5362641e-07, No Iterations 0
DICPCG:  Solving for T, Initial residual = 1.5362641e-07, Final residual = 1.5362641e-07, No Iterations 0
ExecutionTime = 0.05 s  ClockTime = 0 s

Time = 5.35

DICPCG:  Solving for T, Initial residual = 0.0024518715, Final residual = 1.5236724e-07, No Iterations 3
DICPCG:  Solving for T, Initial residual = 1.5227127e-07, Final residual = 1.5227127e-07, No Iterations 0
DICPCG:  Solving for T, Initial residual = 1.5227127e-07, Final residual = 1.5227127e-07, No Iterations 0
ExecutionTime = 0.05 s  ClockTime = 0 s

Time = 5.4

DICPCG:  Solving for T, Initial residual = 0.0024321799, Final residual = 1.5105246e-07, No Iterations 3
DICPCG:  Solving for T, Initial residual = 1.5095948e-07, Final residual = 1.5095948e-07, No Iterations 0
DICPCG:  Solving for T, Initial residual = 1.5095948e-07, Final residual = 1.5095948e-07, No Iterations 0
ExecutionTime = 0.05 s  ClockTime = 0 s

Time = 5.45

DICPCG:  Solving for T, Initial residual = 0.0024127121, Final residual = 1.4975506e-07, No Iterations 3
DICPCG:  Solving for T, Initial residual = 1.4966496e-07, Final residual = 1.4966496e-07, No Iterations 0
DICPCG:  Solving for T, Initial residual = 1.4966496e-07, Final residual = 1.4966496e-07, No Iterations 0
ExecutionTime = 0.05 s  ClockTime = 0 s

Time = 5.5

DICPCG:  Solving for T, Initial residual = 0.0023934625, Final residual = 1.4847716e-07, No Iterations 3
DICPCG:  Solving for T, Initial residual = 1.4838984e-07, Final residual = 1.4838984e-07, No Iterations 0
DICPCG:  Solving for T, Initial residual = 1.4838984e-07, Final residual = 1.4838984e-07, No Iterations 0
ExecutionTime = 0.05 s  ClockTime = 0 s

Time = 5.55

DICPCG:  Solving for T, Initial residual = 0.0023744259, Final residual = 1.472178e-07, No Iterations 3
DICPCG:  Solving for T, Initial residual = 1.4713315e-07, Final residual = 1.4713315e-07, No Iterations 0
DICPCG:  Solving for T, Initial residual = 1.4713315e-07, Final residual = 1.4713315e-07, No Iterations 0
ExecutionTime = 0.05 s  ClockTime = 0 s

Time = 5.6

DICPCG:  Solving for T, Initial residual = 0.0023555972, Final residual = 1.4597376e-07, No Iterations 3
DICPCG:  Solving for T, Initial residual = 1.4589168e-07, Final residual = 1.4589168e-07, No Iterations 0
DICPCG:  Solving for T, Initial residual = 1.4589168e-07, Final residual = 1.4589168e-07, No Iterations 0
ExecutionTime = 0.05 s  ClockTime = 0 s

Time = 5.65

DICPCG:  Solving for T, Initial residual = 0.0023369716, Final residual = 1.447447e-07, No Iterations 3
DICPCG:  Solving for T, Initial residual = 1.4466511e-07, Final residual = 1.4466511e-07, No Iterations 0
DICPCG:  Solving for T, Initial residual = 1.4466511e-07, Final residual = 1.4466511e-07, No Iterations 0
ExecutionTime = 0.05 s  ClockTime = 0 s

Time = 5.7

DICPCG:  Solving for T, Initial residual = 0.0023185445, Final residual = 1.4353077e-07, No Iterations 3
DICPCG:  Solving for T, Initial residual = 1.4345357e-07, Final residual = 1.4345357e-07, No Iterations 0
DICPCG:  Solving for T, Initial residual = 1.4345357e-07, Final residual = 1.4345357e-07, No Iterations 0
ExecutionTime = 0.05 s  ClockTime = 0 s

Time = 5.75

DICPCG:  Solving for T, Initial residual = 0.0023003113, Final residual = 1.4233517e-07, No Iterations 3
DICPCG:  Solving for T, Initial residual = 1.4226028e-07, Final residual = 1.4226028e-07, No Iterations 0
DICPCG:  Solving for T, Initial residual = 1.4226028e-07, Final residual = 1.4226028e-07, No Iterations 0
ExecutionTime = 0.05 s  ClockTime = 0 s

Time = 5.8

DICPCG:  Solving for T, Initial residual = 0.002282268, Final residual = 1.4116053e-07, No Iterations 3
DICPCG:  Solving for T, Initial residual = 1.4108786e-07, Final residual = 1.4108786e-07, No Iterations 0
DICPCG:  Solving for T, Initial residual = 1.4108786e-07, Final residual = 1.4108786e-07, No Iterations 0
ExecutionTime = 0.05 s  ClockTime = 0 s

Time = 5.85

DICPCG:  Solving for T, Initial residual = 0.0022644103, Final residual = 1.4000364e-07, No Iterations 3
DICPCG:  Solving for T, Initial residual = 1.3993311e-07, Final residual = 1.3993311e-07, No Iterations 0
DICPCG:  Solving for T, Initial residual = 1.3993311e-07, Final residual = 1.3993311e-07, No Iterations 0
ExecutionTime = 0.05 s  ClockTime = 0 s

Time = 5.9

DICPCG:  Solving for T, Initial residual = 0.0022467344, Final residual = 1.3885967e-07, No Iterations 3
DICPCG:  Solving for T, Initial residual = 1.3879121e-07, Final residual = 1.3879121e-07, No Iterations 0
DICPCG:  Solving for T, Initial residual = 1.3879121e-07, Final residual = 1.3879121e-07, No Iterations 0
ExecutionTime = 0.05 s  ClockTime = 0 s

Time = 5.95

DICPCG:  Solving for T, Initial residual = 0.0022292364, Final residual = 1.3772839e-07, No Iterations 3
DICPCG:  Solving for T, Initial residual = 1.3766191e-07, Final residual = 1.3766191e-07, No Iterations 0
DICPCG:  Solving for T, Initial residual = 1.3766191e-07, Final residual = 1.3766191e-07, No Iterations 0
ExecutionTime = 0.05 s  ClockTime = 0 s

Time = 6

DICPCG:  Solving for T, Initial residual = 0.0022119128, Final residual = 1.3661129e-07, No Iterations 3
DICPCG:  Solving for T, Initial residual = 1.3654674e-07, Final residual = 1.3654674e-07, No Iterations 0
DICPCG:  Solving for T, Initial residual = 1.3654674e-07, Final residual = 1.3654674e-07, No Iterations 0
ExecutionTime = 0.05 s  ClockTime = 0 s

Time = 6.05

DICPCG:  Solving for T, Initial residual = 0.00219476, Final residual = 1.3551498e-07, No Iterations 3
DICPCG:  Solving for T, Initial residual = 1.3545228e-07, Final residual = 1.3545228e-07, No Iterations 0
DICPCG:  Solving for T, Initial residual = 1.3545228e-07, Final residual = 1.3545228e-07, No Iterations 0
ExecutionTime = 0.05 s  ClockTime = 0 s

runTime.value(): 6.05
snapshotsTime: 6
Time = 6.1

DICPCG:  Solving for T, Initial residual = 0.0021777748, Final residual = 1.3443198e-07, No Iterations 3
DICPCG:  Solving for T, Initial residual = 1.3437108e-07, Final residual = 1.3437108e-07, No Iterations 0
DICPCG:  Solving for T, Initial residual = 1.3437108e-07, Final residual = 1.3437108e-07, No Iterations 0
ExecutionTime = 0.05 s  ClockTime = 0 s

Time = 6.15

DICPCG:  Solving for T, Initial residual = 0.0021609538, Final residual = 1.3336027e-07, No Iterations 3
DICPCG:  Solving for T, Initial residual = 1.3330109e-07, Final residual = 1.3330109e-07, No Iterations 0
DICPCG:  Solving for T, Initial residual = 1.3330109e-07, Final residual = 1.3330109e-07, No Iterations 0
ExecutionTime = 0.06 s  ClockTime = 0 s

Time = 6.2

DICPCG:  Solving for T, Initial residual = 0.0021442939, Final residual = 1.3229962e-07, No Iterations 3
DICPCG:  Solving for T, Initial residual = 1.3224212e-07, Final residual = 1.3224212e-07, No Iterations 0
DICPCG:  Solving for T, Initial residual = 1.3224212e-07, Final residual = 1.3224212e-07, No Iterations 0
ExecutionTime = 0.06 s  ClockTime = 0 s

Time = 6.25

DICPCG:  Solving for T, Initial residual = 0.0021277923, Final residual = 1.3124985e-07, No Iterations 3
DICPCG:  Solving for T, Initial residual = 1.3119396e-07, Final residual = 1.3119396e-07, No Iterations 0
DICPCG:  Solving for T, Initial residual = 1.3119396e-07, Final residual = 1.3119396e-07, No Iterations 0
ExecutionTime = 0.06 s  ClockTime = 0 s

Time = 6.3

DICPCG:  Solving for T, Initial residual = 0.0021114459, Final residual = 1.30219e-07, No Iterations 3
DICPCG:  Solving for T, Initial residual = 1.3016466e-07, Final residual = 1.3016466e-07, No Iterations 0
DICPCG:  Solving for T, Initial residual = 1.3016466e-07, Final residual = 1.3016466e-07, No Iterations 0
ExecutionTime = 0.06 s  ClockTime = 0 s

Time = 6.35

DICPCG:  Solving for T, Initial residual = 0.0020952521, Final residual = 1.2920281e-07, No Iterations 3
DICPCG:  Solving for T, Initial residual = 1.2914997e-07, Final residual = 1.2914997e-07, No Iterations 0
DICPCG:  Solving for T, Initial residual = 1.2914997e-07, Final residual = 1.2914997e-07, No Iterations 0
ExecutionTime = 0.06 s  ClockTime = 0 s

Time = 6.4

DICPCG:  Solving for T, Initial residual = 0.002079208, Final residual = 1.2820326e-07, No Iterations 3
DICPCG:  Solving for T, Initial residual = 1.2815188e-07, Final residual = 1.2815188e-07, No Iterations 0
DICPCG:  Solving for T, Initial residual = 1.2815188e-07, Final residual = 1.2815188e-07, No Iterations 0
ExecutionTime = 0.06 s  ClockTime = 0 s

Time = 6.45

DICPCG:  Solving for T, Initial residual = 0.0020633112, Final residual = 1.2721508e-07, No Iterations 3
DICPCG:  Solving for T, Initial residual = 1.271651e-07, Final residual = 1.271651e-07, No Iterations 0
DICPCG:  Solving for T, Initial residual = 1.271651e-07, Final residual = 1.271651e-07, No Iterations 0
ExecutionTime = 0.06 s  ClockTime = 0 s

Time = 6.5

DICPCG:  Solving for T, Initial residual = 0.0020475591, Final residual = 1.2623606e-07, No Iterations 3
DICPCG:  Solving for T, Initial residual = 1.2618744e-07, Final residual = 1.2618744e-07, No Iterations 0
DICPCG:  Solving for T, Initial residual = 1.2618744e-07, Final residual = 1.2618744e-07, No Iterations 0
ExecutionTime = 0.06 s  ClockTime = 0 s

Time = 6.55

DICPCG:  Solving for T, Initial residual = 0.0020319493, Final residual = 1.2526608e-07, No Iterations 3
DICPCG:  Solving for T, Initial residual = 1.2521877e-07, Final residual = 1.2521877e-07, No Iterations 0
DICPCG:  Solving for T, Initial residual = 1.2521877e-07, Final residual = 1.2521877e-07, No Iterations 0
ExecutionTime = 0.06 s  ClockTime = 0 s

Time = 6.6

DICPCG:  Solving for T, Initial residual = 0.0020164795, Final residual = 1.2430991e-07, No Iterations 3
DICPCG:  Solving for T, Initial residual = 1.2426387e-07, Final residual = 1.2426387e-07, No Iterations 0
DICPCG:  Solving for T, Initial residual = 1.2426387e-07, Final residual = 1.2426387e-07, No Iterations 0
ExecutionTime = 0.06 s  ClockTime = 0 s

Time = 6.65

DICPCG:  Solving for T, Initial residual = 0.0020011475, Final residual = 1.2336654e-07, No Iterations 3
DICPCG:  Solving for T, Initial residual = 1.2332172e-07, Final residual = 1.2332172e-07, No Iterations 0
DICPCG:  Solving for T, Initial residual = 1.2332172e-07, Final residual = 1.2332172e-07, No Iterations 0
ExecutionTime = 0.07 s  ClockTime = 0 s

Time = 6.7

DICPCG:  Solving for T, Initial residual = 0.0019859509, Final residual = 1.2243254e-07, No Iterations 3
DICPCG:  Solving for T, Initial residual = 1.2238891e-07, Final residual = 1.2238891e-07, No Iterations 0
DICPCG:  Solving for T, Initial residual = 1.2238891e-07, Final residual = 1.2238891e-07, No Iterations 0
ExecutionTime = 0.07 s  ClockTime = 0 s

Time = 6.75

DICPCG:  Solving for T, Initial residual = 0.0019708878, Final residual = 1.2150989e-07, No Iterations 3
DICPCG:  Solving for T, Initial residual = 1.2146741e-07, Final residual = 1.2146741e-07, No Iterations 0
DICPCG:  Solving for T, Initial residual = 1.2146741e-07, Final residual = 1.2146741e-07, No Iterations 0
ExecutionTime = 0.07 s  ClockTime = 0 s

Time = 6.8

DICPCG:  Solving for T, Initial residual = 0.0019559561, Final residual = 1.2059511e-07, No Iterations 3
DICPCG:  Solving for T, Initial residual = 1.2055374e-07, Final residual = 1.2055374e-07, No Iterations 0
DICPCG:  Solving for T, Initial residual = 1.2055374e-07, Final residual = 1.2055374e-07, No Iterations 0
ExecutionTime = 0.07 s  ClockTime = 0 s

Time = 6.85

DICPCG:  Solving for T, Initial residual = 0.0019411538, Final residual = 1.1968938e-07, No Iterations 3
DICPCG:  Solving for T, Initial residual = 1.1964908e-07, Final residual = 1.1964908e-07, No Iterations 0
DICPCG:  Solving for T, Initial residual = 1.1964908e-07, Final residual = 1.1964908e-07, No Iterations 0
ExecutionTime = 0.07 s  ClockTime = 0 s

Time = 6.9

DICPCG:  Solving for T, Initial residual = 0.0019264791, Final residual = 1.1879283e-07, No Iterations 3
DICPCG:  Solving for T, Initial residual = 1.1875358e-07, Final residual = 1.1875358e-07, No Iterations 0
DICPCG:  Solving for T, Initial residual = 1.1875358e-07, Final residual = 1.1875358e-07, No Iterations 0
ExecutionTime = 0.07 s  ClockTime = 0 s

Time = 6.95

DICPCG:  Solving for T, Initial residual = 0.0019119299, Final residual = 1.1791163e-07, No Iterations 3
DICPCG:  Solving for T, Initial residual = 1.1787338e-07, Final residual = 1.1787338e-07, No Iterations 0
DICPCG:  Solving for T, Initial residual = 1.1787338e-07, Final residual = 1.1787338e-07, No Iterations 0
ExecutionTime = 0.07 s  ClockTime = 0 s

Time = 7

DICPCG:  Solving for T, Initial residual = 0.0018975046, Final residual = 1.1703778e-07, No Iterations 3
DICPCG:  Solving for T, Initial residual = 1.1700051e-07, Final residual = 1.1700051e-07, No Iterations 0
DICPCG:  Solving for T, Initial residual = 1.1700051e-07, Final residual = 1.1700051e-07, No Iterations 0
ExecutionTime = 0.07 s  ClockTime = 0 s

Time = 7.05

DICPCG:  Solving for T, Initial residual = 0.0018832013, Final residual = 1.161719e-07, No Iterations 3
DICPCG:  Solving for T, Initial residual = 1.1613557e-07, Final residual = 1.1613557e-07, No Iterations 0
DICPCG:  Solving for T, Initial residual = 1.1613557e-07, Final residual = 1.1613557e-07, No Iterations 0
ExecutionTime = 0.07 s  ClockTime = 0 s

runTime.value(): 7.05
snapshotsTime: 7
Time = 7.1

DICPCG:  Solving for T, Initial residual = 0.0018688589, Final residual = 1.1530298e-07, No Iterations 3
DICPCG:  Solving for T, Initial residual = 1.1527742e-07, Final residual = 1.1527742e-07, No Iterations 0
DICPCG:  Solving for T, Initial residual = 1.1527742e-07, Final residual = 1.1527742e-07, No Iterations 0
ExecutionTime = 0.07 s  ClockTime = 0 s

Time = 7.15

DICPCG:  Solving for T, Initial residual = 0.0018545955, Final residual = 1.1443836e-07, No Iterations 3
DICPCG:  Solving for T, Initial residual = 1.1442382e-07, Final residual = 1.1442382e-07, No Iterations 0
DICPCG:  Solving for T, Initial residual = 1.1442382e-07, Final residual = 1.1442382e-07, No Iterations 0
ExecutionTime = 0.07 s  ClockTime = 0 s

Time = 7.2

DICPCG:  Solving for T, Initial residual = 0.0018404367, Final residual = 1.1357962e-07, No Iterations 3
DICPCG:  Solving for T, Initial residual = 1.135544e-07, Final residual = 1.135544e-07, No Iterations 0
DICPCG:  Solving for T, Initial residual = 1.135544e-07, Final residual = 1.135544e-07, No Iterations 0
ExecutionTime = 0.07 s  ClockTime = 0 s

Time = 7.25

DICPCG:  Solving for T, Initial residual = 0.0018262178, Final residual = 1.1271662e-07, No Iterations 3
DICPCG:  Solving for T, Initial residual = 1.1269214e-07, Final residual = 1.1269214e-07, No Iterations 0
DICPCG:  Solving for T, Initial residual = 1.1269214e-07, Final residual = 1.1269214e-07, No Iterations 0
ExecutionTime = 0.07 s  ClockTime = 0 s

Time = 7.3

DICPCG:  Solving for T, Initial residual = 0.0018121226, Final residual = 1.1186072e-07, No Iterations 3
DICPCG:  Solving for T, Initial residual = 1.1183696e-07, Final residual = 1.1183696e-07, No Iterations 0
DICPCG:  Solving for T, Initial residual = 1.1183696e-07, Final residual = 1.1183696e-07, No Iterations 0
ExecutionTime = 0.07 s  ClockTime = 0 s

Time = 7.35

DICPCG:  Solving for T, Initial residual = 0.0017981495, Final residual = 1.1101184e-07, No Iterations 3
DICPCG:  Solving for T, Initial residual = 1.1098878e-07, Final residual = 1.1098878e-07, No Iterations 0
DICPCG:  Solving for T, Initial residual = 1.1098878e-07, Final residual = 1.1098878e-07, No Iterations 0
ExecutionTime = 0.07 s  ClockTime = 0 s

Time = 7.4

DICPCG:  Solving for T, Initial residual = 0.0017842968, Final residual = 1.1016989e-07, No Iterations 3
DICPCG:  Solving for T, Initial residual = 1.101475e-07, Final residual = 1.101475e-07, No Iterations 0
DICPCG:  Solving for T, Initial residual = 1.101475e-07, Final residual = 1.101475e-07, No Iterations 0
ExecutionTime = 0.07 s  ClockTime = 0 s

Time = 7.45

DICPCG:  Solving for T, Initial residual = 0.001770563, Final residual = 1.0933479e-07, No Iterations 3
DICPCG:  Solving for T, Initial residual = 1.0931305e-07, Final residual = 1.0931305e-07, No Iterations 0
DICPCG:  Solving for T, Initial residual = 1.0931305e-07, Final residual = 1.0931305e-07, No Iterations 0
ExecutionTime = 0.07 s  ClockTime = 0 s

Time = 7.5

DICPCG:  Solving for T, Initial residual = 0.0017569464, Final residual = 1.0850646e-07, No Iterations 3
DICPCG:  Solving for T, Initial residual = 1.0848536e-07, Final residual = 1.0848536e-07, No Iterations 0
DICPCG:  Solving for T, Initial residual = 1.0848536e-07, Final residual = 1.0848536e-07, No Iterations 0
ExecutionTime = 0.07 s  ClockTime = 0 s

Time = 7.55

DICPCG:  Solving for T, Initial residual = 0.0017434456, Final residual = 1.0768483e-07, No Iterations 3
DICPCG:  Solving for T, Initial residual = 1.0766433e-07, Final residual = 1.0766433e-07, No Iterations 0
DICPCG:  Solving for T, Initial residual = 1.0766433e-07, Final residual = 1.0766433e-07, No Iterations 0
ExecutionTime = 0.07 s  ClockTime = 0 s

Time = 7.6

DICPCG:  Solving for T, Initial residual = 0.0017300591, Final residual = 1.0686982e-07, No Iterations 3
DICPCG:  Solving for T, Initial residual = 1.068499e-07, Final residual = 1.068499e-07, No Iterations 0
DICPCG:  Solving for T, Initial residual = 1.068499e-07, Final residual = 1.068499e-07, No Iterations 0
ExecutionTime = 0.07 s  ClockTime = 0 s

Time = 7.65

DICPCG:  Solving for T, Initial residual = 0.0017167854, Final residual = 1.0606135e-07, No Iterations 3
DICPCG:  Solving for T, Initial residual = 1.06042e-07, Final residual = 1.06042e-07, No Iterations 0
DICPCG:  Solving for T, Initial residual = 1.06042e-07, Final residual = 1.06042e-07, No Iterations 0
ExecutionTime = 0.07 s  ClockTime = 0 s

Time = 7.7

DICPCG:  Solving for T, Initial residual = 0.0017036232, Final residual = 1.0525934e-07, No Iterations 3
DICPCG:  Solving for T, Initial residual = 1.0524055e-07, Final residual = 1.0524055e-07, No Iterations 0
DICPCG:  Solving for T, Initial residual = 1.0524055e-07, Final residual = 1.0524055e-07, No Iterations 0
ExecutionTime = 0.07 s  ClockTime = 0 s

Time = 7.75

DICPCG:  Solving for T, Initial residual = 0.0016905711, Final residual = 1.0446374e-07, No Iterations 3
DICPCG:  Solving for T, Initial residual = 1.0444548e-07, Final residual = 1.0444548e-07, No Iterations 0
DICPCG:  Solving for T, Initial residual = 1.0444548e-07, Final residual = 1.0444548e-07, No Iterations 0
ExecutionTime = 0.07 s  ClockTime = 0 s

Time = 7.8

DICPCG:  Solving for T, Initial residual = 0.0016776278, Final residual = 1.0367447e-07, No Iterations 3
DICPCG:  Solving for T, Initial residual = 1.0365672e-07, Final residual = 1.0365672e-07, No Iterations 0
DICPCG:  Solving for T, Initial residual = 1.0365672e-07, Final residual = 1.0365672e-07, No Iterations 0
ExecutionTime = 0.07 s  ClockTime = 0 s

Time = 7.85

DICPCG:  Solving for T, Initial residual = 0.0016647919, Final residual = 1.0289504e-07, No Iterations 3
DICPCG:  Solving for T, Initial residual = 1.0287779e-07, Final residual = 1.0287779e-07, No Iterations 0
DICPCG:  Solving for T, Initial residual = 1.0287779e-07, Final residual = 1.0287779e-07, No Iterations 0
ExecutionTime = 0.08 s  ClockTime = 0 s

Time = 7.9

DICPCG:  Solving for T, Initial residual = 0.0016520622, Final residual = 1.0212564e-07, No Iterations 3
DICPCG:  Solving for T, Initial residual = 1.0210887e-07, Final residual = 1.0210887e-07, No Iterations 0
DICPCG:  Solving for T, Initial residual = 1.0210887e-07, Final residual = 1.0210887e-07, No Iterations 0
ExecutionTime = 0.08 s  ClockTime = 0 s

Time = 7.95

DICPCG:  Solving for T, Initial residual = 0.0016394375, Final residual = 1.0136209e-07, No Iterations 3
DICPCG:  Solving for T, Initial residual = 1.0134578e-07, Final residual = 1.0134578e-07, No Iterations 0
DICPCG:  Solving for T, Initial residual = 1.0134578e-07, Final residual = 1.0134578e-07, No Iterations 0
ExecutionTime = 0.08 s  ClockTime = 0 s

Time = 8

DICPCG:  Solving for T, Initial residual = 0.0016269165, Final residual = 1.0060434e-07, No Iterations 3
DICPCG:  Solving for T, Initial residual = 1.0058848e-07, Final residual = 1.0058848e-07, No Iterations 0
DICPCG:  Solving for T, Initial residual = 1.0058848e-07, Final residual = 1.0058848e-07, No Iterations 0
ExecutionTime = 0.08 s  ClockTime = 0 s

Time = 8.05

DICPCG:  Solving for T, Initial residual = 0.001614498, Final residual = 9.9852338e-08, No Iterations 3
DICPCG:  Solving for T, Initial residual = 9.9836916e-08, Final residual = 9.9836916e-08, No Iterations 0
DICPCG:  Solving for T, Initial residual = 9.9836916e-08, Final residual = 9.9836916e-08, No Iterations 0
ExecutionTime = 0.08 s  ClockTime = 0 s

runTime.value(): 8.05
snapshotsTime: 8
Time = 8.1

DICPCG:  Solving for T, Initial residual = 0.001602181, Final residual = 9.9106028e-08, No Iterations 3
DICPCG:  Solving for T, Initial residual = 9.9091027e-08, Final residual = 9.9091027e-08, No Iterations 0
DICPCG:  Solving for T, Initial residual = 9.9091027e-08, Final residual = 9.9091027e-08, No Iterations 0
ExecutionTime = 0.08 s  ClockTime = 0 s

Time = 8.15

DICPCG:  Solving for T, Initial residual = 0.0015899642, Final residual = 9.8365358e-08, No Iterations 3
DICPCG:  Solving for T, Initial residual = 9.8350765e-08, Final residual = 9.8350765e-08, No Iterations 0
DICPCG:  Solving for T, Initial residual = 9.8350765e-08, Final residual = 9.8350765e-08, No Iterations 0
ExecutionTime = 0.08 s  ClockTime = 0 s

Time = 8.2

DICPCG:  Solving for T, Initial residual = 0.0015778465, Final residual = 9.7630277e-08, No Iterations 3
DICPCG:  Solving for T, Initial residual = 9.7616079e-08, Final residual = 9.7616079e-08, No Iterations 0
DICPCG:  Solving for T, Initial residual = 9.7616079e-08, Final residual = 9.7616079e-08, No Iterations 0
ExecutionTime = 0.08 s  ClockTime = 0 s

Time = 8.25

DICPCG:  Solving for T, Initial residual = 0.001565827, Final residual = 9.6900735e-08, No Iterations 3
DICPCG:  Solving for T, Initial residual = 9.688692e-08, Final residual = 9.688692e-08, No Iterations 0
DICPCG:  Solving for T, Initial residual = 9.688692e-08, Final residual = 9.688692e-08, No Iterations 0
ExecutionTime = 0.08 s  ClockTime = 0 s

Time = 8.3

DICPCG:  Solving for T, Initial residual = 0.0015539045, Final residual = 9.6176681e-08, No Iterations 3
DICPCG:  Solving for T, Initial residual = 9.6163237e-08, Final residual = 9.6163237e-08, No Iterations 0
DICPCG:  Solving for T, Initial residual = 9.6163237e-08, Final residual = 9.6163237e-08, No Iterations 0
ExecutionTime = 0.08 s  ClockTime = 0 s

Time = 8.35

DICPCG:  Solving for T, Initial residual = 0.0015420779, Final residual = 9.5458069e-08, No Iterations 3
DICPCG:  Solving for T, Initial residual = 9.5444983e-08, Final residual = 9.5444983e-08, No Iterations 0
DICPCG:  Solving for T, Initial residual = 9.5444983e-08, Final residual = 9.5444983e-08, No Iterations 0
ExecutionTime = 0.08 s  ClockTime = 0 s

Time = 8.4

DICPCG:  Solving for T, Initial residual = 0.0015303463, Final residual = 9.4744849e-08, No Iterations 3
DICPCG:  Solving for T, Initial residual = 9.4732111e-08, Final residual = 9.4732111e-08, No Iterations 0
DICPCG:  Solving for T, Initial residual = 9.4732111e-08, Final residual = 9.4732111e-08, No Iterations 0
ExecutionTime = 0.08 s  ClockTime = 0 s

Time = 8.45

DICPCG:  Solving for T, Initial residual = 0.0015187086, Final residual = 9.4036975e-08, No Iterations 3
DICPCG:  Solving for T, Initial residual = 9.4024574e-08, Final residual = 9.4024574e-08, No Iterations 0
DICPCG:  Solving for T, Initial residual = 9.4024574e-08, Final residual = 9.4024574e-08, No Iterations 0
ExecutionTime = 0.08 s  ClockTime = 0 s

Time = 8.5

DICPCG:  Solving for T, Initial residual = 0.001507164, Final residual = 9.3334401e-08, No Iterations 3
DICPCG:  Solving for T, Initial residual = 9.3322327e-08, Final residual = 9.3322327e-08, No Iterations 0
DICPCG:  Solving for T, Initial residual = 9.3322327e-08, Final residual = 9.3322327e-08, No Iterations 0
ExecutionTime = 0.08 s  ClockTime = 0 s

Time = 8.55

DICPCG:  Solving for T, Initial residual = 0.0014957113, Final residual = 9.2637081e-08, No Iterations 3
DICPCG:  Solving for T, Initial residual = 9.2625323e-08, Final residual = 9.2625323e-08, No Iterations 0
DICPCG:  Solving for T, Initial residual = 9.2625323e-08, Final residual = 9.2625323e-08, No Iterations 0
ExecutionTime = 0.08 s  ClockTime = 0 s

Time = 8.6

DICPCG:  Solving for T, Initial residual = 0.0014843498, Final residual = 9.1944971e-08, No Iterations 3
DICPCG:  Solving for T, Initial residual = 9.1933519e-08, Final residual = 9.1933519e-08, No Iterations 0
DICPCG:  Solving for T, Initial residual = 9.1933519e-08, Final residual = 9.1933519e-08, No Iterations 0
ExecutionTime = 0.08 s  ClockTime = 0 s

Time = 8.65

DICPCG:  Solving for T, Initial residual = 0.0014730784, Final residual = 9.1258026e-08, No Iterations 3
DICPCG:  Solving for T, Initial residual = 9.1246871e-08, Final residual = 9.1246871e-08, No Iterations 0
DICPCG:  Solving for T, Initial residual = 9.1246871e-08, Final residual = 9.1246871e-08, No Iterations 0
ExecutionTime = 0.08 s  ClockTime = 0 s

Time = 8.7

DICPCG:  Solving for T, Initial residual = 0.0014618962, Final residual = 9.0576203e-08, No Iterations 3
DICPCG:  Solving for T, Initial residual = 9.0565336e-08, Final residual = 9.0565336e-08, No Iterations 0
DICPCG:  Solving for T, Initial residual = 9.0565336e-08, Final residual = 9.0565336e-08, No Iterations 0
ExecutionTime = 0.08 s  ClockTime = 0 s

Time = 8.75

DICPCG:  Solving for T, Initial residual = 0.0014508025, Final residual = 8.989946e-08, No Iterations 3
DICPCG:  Solving for T, Initial residual = 8.9888872e-08, Final residual = 8.9888872e-08, No Iterations 0
DICPCG:  Solving for T, Initial residual = 8.9888872e-08, Final residual = 8.9888872e-08, No Iterations 0
ExecutionTime = 0.08 s  ClockTime = 0 s

Time = 8.8

DICPCG:  Solving for T, Initial residual = 0.0014397962, Final residual = 8.9227754e-08, No Iterations 3
DICPCG:  Solving for T, Initial residual = 8.9217437e-08, Final residual = 8.9217437e-08, No Iterations 0
DICPCG:  Solving for T, Initial residual = 8.9217437e-08, Final residual = 8.9217437e-08, No Iterations 0
ExecutionTime = 0.08 s  ClockTime = 0 s

Time = 8.85

DICPCG:  Solving for T, Initial residual = 0.0014288766, Final residual = 8.8561515e-08, No Iterations 3
DICPCG:  Solving for T, Initial residual = 8.855146e-08, Final residual = 8.855146e-08, No Iterations 0
DICPCG:  Solving for T, Initial residual = 8.855146e-08, Final residual = 8.855146e-08, No Iterations 0
ExecutionTime = 0.08 s  ClockTime = 0 s

Time = 8.9

DICPCG:  Solving for T, Initial residual = 0.0014180427, Final residual = 8.7901163e-08, No Iterations 3
DICPCG:  Solving for T, Initial residual = 8.7891362e-08, Final residual = 8.7891362e-08, No Iterations 0
DICPCG:  Solving for T, Initial residual = 8.7891362e-08, Final residual = 8.7891362e-08, No Iterations 0
ExecutionTime = 0.08 s  ClockTime = 0 s

Time = 8.95

DICPCG:  Solving for T, Initial residual = 0.0014072939, Final residual = 8.724567e-08, No Iterations 3
DICPCG:  Solving for T, Initial residual = 8.7236117e-08, Final residual = 8.7236117e-08, No Iterations 0
DICPCG:  Solving for T, Initial residual = 8.7236117e-08, Final residual = 8.7236117e-08, No Iterations 0
ExecutionTime = 0.08 s  ClockTime = 0 s

Time = 9

DICPCG:  Solving for T, Initial residual = 0.0013966292, Final residual = 8.6594999e-08, No Iterations 3
DICPCG:  Solving for T, Initial residual = 8.6585684e-08, Final residual = 8.6585684e-08, No Iterations 0
DICPCG:  Solving for T, Initial residual = 8.6585684e-08, Final residual = 8.6585684e-08, No Iterations 0
ExecutionTime = 0.08 s  ClockTime = 0 s

Time = 9.05

DICPCG:  Solving for T, Initial residual = 0.0013860478, Final residual = 8.5949112e-08, No Iterations 3
DICPCG:  Solving for T, Initial residual = 8.5940029e-08, Final residual = 8.5940029e-08, No Iterations 0
DICPCG:  Solving for T, Initial residual = 8.5940029e-08, Final residual = 8.5940029e-08, No Iterations 0
ExecutionTime = 0.08 s  ClockTime = 0 s

runTime.value(): 9.05
snapshotsTime: 9
Time = 9.1

DICPCG:  Solving for T, Initial residual = 0.0013755491, Final residual = 8.5307971e-08, No Iterations 3
DICPCG:  Solving for T, Initial residual = 8.5299114e-08, Final residual = 8.5299114e-08, No Iterations 0
DICPCG:  Solving for T, Initial residual = 8.5299114e-08, Final residual = 8.5299114e-08, No Iterations 0
ExecutionTime = 0.09 s  ClockTime = 0 s

Time = 9.15

DICPCG:  Solving for T, Initial residual = 0.0013651321, Final residual = 8.4671542e-08, No Iterations 3
DICPCG:  Solving for T, Initial residual = 8.4662903e-08, Final residual = 8.4662903e-08, No Iterations 0
DICPCG:  Solving for T, Initial residual = 8.4662903e-08, Final residual = 8.4662903e-08, No Iterations 0
ExecutionTime = 0.09 s  ClockTime = 0 s

Time = 9.2

DICPCG:  Solving for T, Initial residual = 0.0013547962, Final residual = 8.4039786e-08, No Iterations 3
DICPCG:  Solving for T, Initial residual = 8.403136e-08, Final residual = 8.403136e-08, No Iterations 0
DICPCG:  Solving for T, Initial residual = 8.403136e-08, Final residual = 8.403136e-08, No Iterations 0
ExecutionTime = 0.09 s  ClockTime = 0 s

Time = 9.25

DICPCG:  Solving for T, Initial residual = 0.0013445406, Final residual = 8.341267e-08, No Iterations 3
DICPCG:  Solving for T, Initial residual = 8.340445e-08, Final residual = 8.340445e-08, No Iterations 0
DICPCG:  Solving for T, Initial residual = 8.340445e-08, Final residual = 8.340445e-08, No Iterations 0
ExecutionTime = 0.09 s  ClockTime = 0 s

Time = 9.3

DICPCG:  Solving for T, Initial residual = 0.0013343645, Final residual = 8.2790158e-08, No Iterations 3
DICPCG:  Solving for T, Initial residual = 8.2782137e-08, Final residual = 8.2782137e-08, No Iterations 0
DICPCG:  Solving for T, Initial residual = 8.2782137e-08, Final residual = 8.2782137e-08, No Iterations 0
ExecutionTime = 0.09 s  ClockTime = 0 s

Time = 9.35

DICPCG:  Solving for T, Initial residual = 0.0013242673, Final residual = 8.2172215e-08, No Iterations 3
DICPCG:  Solving for T, Initial residual = 8.2164388e-08, Final residual = 8.2164388e-08, No Iterations 0
DICPCG:  Solving for T, Initial residual = 8.2164388e-08, Final residual = 8.2164388e-08, No Iterations 0
ExecutionTime = 0.09 s  ClockTime = 0 s

Time = 9.4

DICPCG:  Solving for T, Initial residual = 0.0013142482, Final residual = 8.1558806e-08, No Iterations 3
DICPCG:  Solving for T, Initial residual = 8.1551168e-08, Final residual = 8.1551168e-08, No Iterations 0
DICPCG:  Solving for T, Initial residual = 8.1551168e-08, Final residual = 8.1551168e-08, No Iterations 0
ExecutionTime = 0.09 s  ClockTime = 0 s

Time = 9.45

DICPCG:  Solving for T, Initial residual = 0.0013043065, Final residual = 8.0949898e-08, No Iterations 3
DICPCG:  Solving for T, Initial residual = 8.0942443e-08, Final residual = 8.0942443e-08, No Iterations 0
DICPCG:  Solving for T, Initial residual = 8.0942443e-08, Final residual = 8.0942443e-08, No Iterations 0
ExecutionTime = 0.09 s  ClockTime = 0 s

Time = 9.5

DICPCG:  Solving for T, Initial residual = 0.0012944416, Final residual = 8.0345457e-08, No Iterations 3
DICPCG:  Solving for T, Initial residual = 8.0338179e-08, Final residual = 8.0338179e-08, No Iterations 0
DICPCG:  Solving for T, Initial residual = 8.0338179e-08, Final residual = 8.0338179e-08, No Iterations 0
ExecutionTime = 0.09 s  ClockTime = 0 s

Time = 9.55

DICPCG:  Solving for T, Initial residual = 0.0012846527, Final residual = 7.9745449e-08, No Iterations 3
DICPCG:  Solving for T, Initial residual = 7.9738344e-08, Final residual = 7.9738344e-08, No Iterations 0
DICPCG:  Solving for T, Initial residual = 7.9738344e-08, Final residual = 7.9738344e-08, No Iterations 0
ExecutionTime = 0.09 s  ClockTime = 0 s

Time = 9.6

DICPCG:  Solving for T, Initial residual = 0.0012749391, Final residual = 7.9149842e-08, No Iterations 3
DICPCG:  Solving for T, Initial residual = 7.9142905e-08, Final residual = 7.9142905e-08, No Iterations 0
DICPCG:  Solving for T, Initial residual = 7.9142905e-08, Final residual = 7.9142905e-08, No Iterations 0
ExecutionTime = 0.09 s  ClockTime = 0 s

Time = 9.65

DICPCG:  Solving for T, Initial residual = 0.0012653003, Final residual = 7.8558603e-08, No Iterations 3
DICPCG:  Solving for T, Initial residual = 7.8551829e-08, Final residual = 7.8551829e-08, No Iterations 0
DICPCG:  Solving for T, Initial residual = 7.8551829e-08, Final residual = 7.8551829e-08, No Iterations 0
ExecutionTime = 0.09 s  ClockTime = 0 s

Time = 9.7

DICPCG:  Solving for T, Initial residual = 0.0012557355, Final residual = 7.79717e-08, No Iterations 3
DICPCG:  Solving for T, Initial residual = 7.7965084e-08, Final residual = 7.7965084e-08, No Iterations 0
DICPCG:  Solving for T, Initial residual = 7.7965084e-08, Final residual = 7.7965084e-08, No Iterations 0
ExecutionTime = 0.09 s  ClockTime = 0 s

Time = 9.75

DICPCG:  Solving for T, Initial residual = 0.0012462442, Final residual = 7.73891e-08, No Iterations 3
DICPCG:  Solving for T, Initial residual = 7.7382638e-08, Final residual = 7.7382638e-08, No Iterations 0
DICPCG:  Solving for T, Initial residual = 7.7382638e-08, Final residual = 7.7382638e-08, No Iterations 0
ExecutionTime = 0.09 s  ClockTime = 0 s

Time = 9.8

DICPCG:  Solving for T, Initial residual = 0.0012368256, Final residual = 7.6810773e-08, No Iterations 3
DICPCG:  Solving for T, Initial residual = 7.680446e-08, Final residual = 7.680446e-08, No Iterations 0
DICPCG:  Solving for T, Initial residual = 7.680446e-08, Final residual = 7.680446e-08, No Iterations 0
ExecutionTime = 0.09 s  ClockTime = 0 s

Time = 9.85

DICPCG:  Solving for T, Initial residual = 0.0012274792, Final residual = 7.6236686e-08, No Iterations 3
DICPCG:  Solving for T, Initial residual = 7.6230518e-08, Final residual = 7.6230518e-08, No Iterations 0
DICPCG:  Solving for T, Initial residual = 7.6230518e-08, Final residual = 7.6230518e-08, No Iterations 0
ExecutionTime = 0.09 s  ClockTime = 0 s

Time = 9.9

DICPCG:  Solving for T, Initial residual = 0.0012182043, Final residual = 7.5666808e-08, No Iterations 3
DICPCG:  Solving for T, Initial residual = 7.5660782e-08, Final residual = 7.5660782e-08, No Iterations 0
DICPCG:  Solving for T, Initial residual = 7.5660782e-08, Final residual = 7.5660782e-08, No Iterations 0
ExecutionTime = 0.09 s  ClockTime = 0 s

Time = 9.95

DICPCG:  Solving for T, Initial residual = 0.0012090003, Final residual = 7.510111e-08, No Iterations 3
DICPCG:  Solving for T, Initial residual = 7.5095221e-08, Final residual = 7.5095221e-08, No Iterations 0
DICPCG:  Solving for T, Initial residual = 7.5095221e-08, Final residual = 7.5095221e-08, No Iterations 0
ExecutionTime = 0.09 s  ClockTime = 0 s

Time = 10

DICPCG:  Solving for T, Initial residual = 0.0011998667, Final residual = 7.4539559e-08, No Iterations 3
DICPCG:  Solving for T, Initial residual = 7.4533804e-08, Final residual = 7.4533804e-08, No Iterations 0
DICPCG:  Solving for T, Initial residual = 7.4533804e-08, Final residual = 7.4533804e-08, No Iterations 0
ExecutionTime = 0.1 s  ClockTime = 0 s

runTime.value(): 10
snapshotsTime: 10
Time = 10.05

DICPCG:  Solving for T, Initial residual = 0.0011908027, Final residual = 7.3982127e-08, No Iterations 3
DICPCG:  Solving for T, Initial residual = 7.3976502e-08, Final residual = 7.3976502e-08, No Iterations 0
DICPCG:  Solving for T, Initial residual = 7.3976502e-08, Final residual = 7.3976502e-08, No Iterations 0
ExecutionTime = 0.1 s  ClockTime = 0 s

Time = 10.1

DICPCG:  Solving for T, Initial residual = 0.001181808, Final residual = 7.3428783e-08, No Iterations 3
DICPCG:  Solving for T, Initial residual = 7.3423284e-08, Final residual = 7.3423284e-08, No Iterations 0
DICPCG:  Solving for T, Initial residual = 7.3423284e-08, Final residual = 7.3423284e-08, No Iterations 0
ExecutionTime = 0.1 s  ClockTime = 0 s

Time = 10.15

DICPCG:  Solving for T, Initial residual = 0.0011728817, Final residual = 7.2879497e-08, No Iterations 3
DICPCG:  Solving for T, Initial residual = 7.2874121e-08, Final residual = 7.2874121e-08, No Iterations 0
DICPCG:  Solving for T, Initial residual = 7.2874121e-08, Final residual = 7.2874121e-08, No Iterations 0
ExecutionTime = 0.1 s  ClockTime = 0 s

Time = 10.2

DICPCG:  Solving for T, Initial residual = 0.0011640235, Final residual = 7.2334241e-08, No Iterations 3
DICPCG:  Solving for T, Initial residual = 7.2328984e-08, Final residual = 7.2328984e-08, No Iterations 0
DICPCG:  Solving for T, Initial residual = 7.2328984e-08, Final residual = 7.2328984e-08, No Iterations 0
ExecutionTime = 0.1 s  ClockTime = 0 s

Time = 10.25

DICPCG:  Solving for T, Initial residual = 0.0011552327, Final residual = 7.1792984e-08, No Iterations 3
DICPCG:  Solving for T, Initial residual = 7.1787844e-08, Final residual = 7.1787844e-08, No Iterations 0
DICPCG:  Solving for T, Initial residual = 7.1787844e-08, Final residual = 7.1787844e-08, No Iterations 0
ExecutionTime = 0.1 s  ClockTime = 0 s

Time = 10.3

DICPCG:  Solving for T, Initial residual = 0.0011465087, Final residual = 7.1255698e-08, No Iterations 3
DICPCG:  Solving for T, Initial residual = 7.1250671e-08, Final residual = 7.1250671e-08, No Iterations 0
DICPCG:  Solving for T, Initial residual = 7.1250671e-08, Final residual = 7.1250671e-08, No Iterations 0
ExecutionTime = 0.1 s  ClockTime = 0 s

Time = 10.35

DICPCG:  Solving for T, Initial residual = 0.0011378511, Final residual = 7.0722355e-08, No Iterations 3
DICPCG:  Solving for T, Initial residual = 7.0717438e-08, Final residual = 7.0717438e-08, No Iterations 0
DICPCG:  Solving for T, Initial residual = 7.0717438e-08, Final residual = 7.0717438e-08, No Iterations 0
ExecutionTime = 0.1 s  ClockTime = 0 s

Time = 10.4

DICPCG:  Solving for T, Initial residual = 0.0011292592, Final residual = 7.0192925e-08, No Iterations 3
DICPCG:  Solving for T, Initial residual = 7.0188115e-08, Final residual = 7.0188115e-08, No Iterations 0
DICPCG:  Solving for T, Initial residual = 7.0188115e-08, Final residual = 7.0188115e-08, No Iterations 0
ExecutionTime = 0.1 s  ClockTime = 0 s

Time = 10.45

DICPCG:  Solving for T, Initial residual = 0.0011207325, Final residual = 6.9668091e-08, No Iterations 3
DICPCG:  Solving for T, Initial residual = 6.9663385e-08, Final residual = 6.9663385e-08, No Iterations 0
DICPCG:  Solving for T, Initial residual = 6.9663385e-08, Final residual = 6.9663385e-08, No Iterations 0
ExecutionTime = 0.1 s  ClockTime = 0 s

Time = 10.5

DICPCG:  Solving for T, Initial residual = 0.0011122706, Final residual = 6.9147239e-08, No Iterations 3
DICPCG:  Solving for T, Initial residual = 6.9142635e-08, Final residual = 6.9142635e-08, No Iterations 0
DICPCG:  Solving for T, Initial residual = 6.9142635e-08, Final residual = 6.9142635e-08, No Iterations 0
ExecutionTime = 0.1 s  ClockTime = 0 s

Time = 10.55

DICPCG:  Solving for T, Initial residual = 0.0011038728, Final residual = 6.8630186e-08, No Iterations 3
DICPCG:  Solving for T, Initial residual = 6.8625682e-08, Final residual = 6.8625682e-08, No Iterations 0
DICPCG:  Solving for T, Initial residual = 6.8625682e-08, Final residual = 6.8625682e-08, No Iterations 0
ExecutionTime = 0.1 s  ClockTime = 0 s

Time = 10.6

[...]

DICPCG:  Solving for T, Initial residual = 3.9113215e-06, Final residual = 1.150743e-07, No Iterations 1
DICPCG:  Solving for T, Initial residual = 1.150743e-07, Final residual = 1.150743e-07, No Iterations 0
DICPCG:  Solving for T, Initial residual = 1.150743e-07, Final residual = 1.150743e-07, No Iterations 0
ExecutionTime = 0.42 s  ClockTime = 0 s

Time = 47.45

DICPCG:  Solving for T, Initial residual = 3.8814539e-06, Final residual = 1.1419557e-07, No Iterations 1
DICPCG:  Solving for T, Initial residual = 1.1419557e-07, Final residual = 1.1419557e-07, No Iterations 0
DICPCG:  Solving for T, Initial residual = 1.1419557e-07, Final residual = 1.1419557e-07, No Iterations 0
ExecutionTime = 0.42 s  ClockTime = 0 s

Time = 47.5

DICPCG:  Solving for T, Initial residual = 3.8518144e-06, Final residual = 1.1332355e-07, No Iterations 1
DICPCG:  Solving for T, Initial residual = 1.1332355e-07, Final residual = 1.1332355e-07, No Iterations 0
DICPCG:  Solving for T, Initial residual = 1.1332355e-07, Final residual = 1.1332355e-07, No Iterations 0
ExecutionTime = 0.42 s  ClockTime = 0 s

Time = 47.55

DICPCG:  Solving for T, Initial residual = 3.8224012e-06, Final residual = 1.1245819e-07, No Iterations 1
DICPCG:  Solving for T, Initial residual = 1.1245819e-07, Final residual = 1.1245819e-07, No Iterations 0
DICPCG:  Solving for T, Initial residual = 1.1245819e-07, Final residual = 1.1245819e-07, No Iterations 0
ExecutionTime = 0.42 s  ClockTime = 0 s

Time = 47.6

DICPCG:  Solving for T, Initial residual = 3.7932126e-06, Final residual = 1.1159944e-07, No Iterations 1
DICPCG:  Solving for T, Initial residual = 1.1159944e-07, Final residual = 1.1159944e-07, No Iterations 0
DICPCG:  Solving for T, Initial residual = 1.1159944e-07, Final residual = 1.1159944e-07, No Iterations 0
ExecutionTime = 0.42 s  ClockTime = 0 s

Time = 47.65

DICPCG:  Solving for T, Initial residual = 3.764247e-06, Final residual = 1.1074724e-07, No Iterations 1
DICPCG:  Solving for T, Initial residual = 1.1074724e-07, Final residual = 1.1074724e-07, No Iterations 0
DICPCG:  Solving for T, Initial residual = 1.1074724e-07, Final residual = 1.1074724e-07, No Iterations 0
ExecutionTime = 0.42 s  ClockTime = 0 s

Time = 47.7

DICPCG:  Solving for T, Initial residual = 3.7355025e-06, Final residual = 1.0990156e-07, No Iterations 1
DICPCG:  Solving for T, Initial residual = 1.0990156e-07, Final residual = 1.0990156e-07, No Iterations 0
DICPCG:  Solving for T, Initial residual = 1.0990156e-07, Final residual = 1.0990156e-07, No Iterations 0
ExecutionTime = 0.42 s  ClockTime = 0 s

Time = 47.75

DICPCG:  Solving for T, Initial residual = 3.7069775e-06, Final residual = 1.0906233e-07, No Iterations 1
DICPCG:  Solving for T, Initial residual = 1.0906233e-07, Final residual = 1.0906233e-07, No Iterations 0
DICPCG:  Solving for T, Initial residual = 1.0906233e-07, Final residual = 1.0906233e-07, No Iterations 0
ExecutionTime = 0.43 s  ClockTime = 0 s

Time = 47.8

DICPCG:  Solving for T, Initial residual = 3.6786703e-06, Final residual = 1.0822951e-07, No Iterations 1
DICPCG:  Solving for T, Initial residual = 1.0822951e-07, Final residual = 1.0822951e-07, No Iterations 0
DICPCG:  Solving for T, Initial residual = 1.0822951e-07, Final residual = 1.0822951e-07, No Iterations 0
ExecutionTime = 0.43 s  ClockTime = 0 s

Time = 47.85

DICPCG:  Solving for T, Initial residual = 3.6505793e-06, Final residual = 1.0740305e-07, No Iterations 1
DICPCG:  Solving for T, Initial residual = 1.0740305e-07, Final residual = 1.0740305e-07, No Iterations 0
DICPCG:  Solving for T, Initial residual = 1.0740305e-07, Final residual = 1.0740305e-07, No Iterations 0
ExecutionTime = 0.43 s  ClockTime = 0 s

Time = 47.9

DICPCG:  Solving for T, Initial residual = 3.6227027e-06, Final residual = 1.065829e-07, No Iterations 1
DICPCG:  Solving for T, Initial residual = 1.065829e-07, Final residual = 1.065829e-07, No Iterations 0
DICPCG:  Solving for T, Initial residual = 1.065829e-07, Final residual = 1.065829e-07, No Iterations 0
ExecutionTime = 0.43 s  ClockTime = 0 s

Time = 47.95

DICPCG:  Solving for T, Initial residual = 3.5950391e-06, Final residual = 1.0576901e-07, No Iterations 1
DICPCG:  Solving for T, Initial residual = 1.0576901e-07, Final residual = 1.0576901e-07, No Iterations 0
DICPCG:  Solving for T, Initial residual = 1.0576901e-07, Final residual = 1.0576901e-07, No Iterations 0
ExecutionTime = 0.43 s  ClockTime = 0 s

Time = 48

DICPCG:  Solving for T, Initial residual = 3.5675867e-06, Final residual = 1.0496134e-07, No Iterations 1
DICPCG:  Solving for T, Initial residual = 1.0496134e-07, Final residual = 1.0496134e-07, No Iterations 0
DICPCG:  Solving for T, Initial residual = 1.0496134e-07, Final residual = 1.0496134e-07, No Iterations 0
ExecutionTime = 0.43 s  ClockTime = 0 s

Time = 48.05

DICPCG:  Solving for T, Initial residual = 3.5403439e-06, Final residual = 1.0415983e-07, No Iterations 1
DICPCG:  Solving for T, Initial residual = 1.0415983e-07, Final residual = 1.0415983e-07, No Iterations 0
DICPCG:  Solving for T, Initial residual = 1.0415983e-07, Final residual = 1.0415983e-07, No Iterations 0
ExecutionTime = 0.43 s  ClockTime = 0 s

runTime.value(): 48.05
snapshotsTime: 48
Time = 48.1

DICPCG:  Solving for T, Initial residual = 3.5133092e-06, Final residual = 1.0336445e-07, No Iterations 1
DICPCG:  Solving for T, Initial residual = 1.0336445e-07, Final residual = 1.0336445e-07, No Iterations 0
DICPCG:  Solving for T, Initial residual = 1.0336445e-07, Final residual = 1.0336445e-07, No Iterations 0
ExecutionTime = 0.43 s  ClockTime = 0 s

Time = 48.15

DICPCG:  Solving for T, Initial residual = 3.4864809e-06, Final residual = 1.0257514e-07, No Iterations 1
DICPCG:  Solving for T, Initial residual = 1.0257514e-07, Final residual = 1.0257514e-07, No Iterations 0
DICPCG:  Solving for T, Initial residual = 1.0257514e-07, Final residual = 1.0257514e-07, No Iterations 0
ExecutionTime = 0.43 s  ClockTime = 0 s

Time = 48.2

DICPCG:  Solving for T, Initial residual = 3.4598575e-06, Final residual = 1.0179186e-07, No Iterations 1
DICPCG:  Solving for T, Initial residual = 1.0179186e-07, Final residual = 1.0179186e-07, No Iterations 0
DICPCG:  Solving for T, Initial residual = 1.0179186e-07, Final residual = 1.0179186e-07, No Iterations 0
ExecutionTime = 0.43 s  ClockTime = 0 s

Time = 48.25

DICPCG:  Solving for T, Initial residual = 3.4334374e-06, Final residual = 1.0101455e-07, No Iterations 1
DICPCG:  Solving for T, Initial residual = 1.0101455e-07, Final residual = 1.0101455e-07, No Iterations 0
DICPCG:  Solving for T, Initial residual = 1.0101455e-07, Final residual = 1.0101455e-07, No Iterations 0
ExecutionTime = 0.43 s  ClockTime = 0 s

Time = 48.3

DICPCG:  Solving for T, Initial residual = 3.407219e-06, Final residual = 1.0024319e-07, No Iterations 1
DICPCG:  Solving for T, Initial residual = 1.0024319e-07, Final residual = 1.0024319e-07, No Iterations 0
DICPCG:  Solving for T, Initial residual = 1.0024319e-07, Final residual = 1.0024319e-07, No Iterations 0
ExecutionTime = 0.43 s  ClockTime = 0 s

Time = 48.35

DICPCG:  Solving for T, Initial residual = 3.3812008e-06, Final residual = 9.9477712e-08, No Iterations 1
DICPCG:  Solving for T, Initial residual = 9.9477712e-08, Final residual = 9.9477712e-08, No Iterations 0
DICPCG:  Solving for T, Initial residual = 9.9477712e-08, Final residual = 9.9477712e-08, No Iterations 0
ExecutionTime = 0.43 s  ClockTime = 0 s

Time = 48.4

DICPCG:  Solving for T, Initial residual = 3.3553813e-06, Final residual = 9.8718082e-08, No Iterations 1
DICPCG:  Solving for T, Initial residual = 9.8718082e-08, Final residual = 9.8718082e-08, No Iterations 0
DICPCG:  Solving for T, Initial residual = 9.8718082e-08, Final residual = 9.8718082e-08, No Iterations 0
ExecutionTime = 0.43 s  ClockTime = 0 s

Time = 48.45

DICPCG:  Solving for T, Initial residual = 3.329759e-06, Final residual = 9.7964252e-08, No Iterations 1
DICPCG:  Solving for T, Initial residual = 9.7964252e-08, Final residual = 9.7964252e-08, No Iterations 0
DICPCG:  Solving for T, Initial residual = 9.7964252e-08, Final residual = 9.7964252e-08, No Iterations 0
ExecutionTime = 0.43 s  ClockTime = 0 s

Time = 48.5

DICPCG:  Solving for T, Initial residual = 3.3043324e-06, Final residual = 9.7216179e-08, No Iterations 1
DICPCG:  Solving for T, Initial residual = 9.7216179e-08, Final residual = 9.7216179e-08, No Iterations 0
DICPCG:  Solving for T, Initial residual = 9.7216179e-08, Final residual = 9.7216179e-08, No Iterations 0
ExecutionTime = 0.43 s  ClockTime = 0 s

Time = 48.55

DICPCG:  Solving for T, Initial residual = 3.2790999e-06, Final residual = 9.6473817e-08, No Iterations 1
DICPCG:  Solving for T, Initial residual = 9.6473817e-08, Final residual = 9.6473817e-08, No Iterations 0
DICPCG:  Solving for T, Initial residual = 9.6473817e-08, Final residual = 9.6473817e-08, No Iterations 0
ExecutionTime = 0.43 s  ClockTime = 0 s

Time = 48.6

DICPCG:  Solving for T, Initial residual = 3.25406e-06, Final residual = 9.5737125e-08, No Iterations 1
DICPCG:  Solving for T, Initial residual = 9.5737125e-08, Final residual = 9.5737125e-08, No Iterations 0
DICPCG:  Solving for T, Initial residual = 9.5737125e-08, Final residual = 9.5737125e-08, No Iterations 0
ExecutionTime = 0.43 s  ClockTime = 0 s

Time = 48.65

DICPCG:  Solving for T, Initial residual = 3.2292114e-06, Final residual = 9.5006059e-08, No Iterations 1
DICPCG:  Solving for T, Initial residual = 9.5006058e-08, Final residual = 9.5006058e-08, No Iterations 0
DICPCG:  Solving for T, Initial residual = 9.5006058e-08, Final residual = 9.5006058e-08, No Iterations 0
ExecutionTime = 0.43 s  ClockTime = 0 s

Time = 48.7

DICPCG:  Solving for T, Initial residual = 3.2045525e-06, Final residual = 9.4280574e-08, No Iterations 1
DICPCG:  Solving for T, Initial residual = 9.4280574e-08, Final residual = 9.4280574e-08, No Iterations 0
DICPCG:  Solving for T, Initial residual = 9.4280574e-08, Final residual = 9.4280574e-08, No Iterations 0
ExecutionTime = 0.43 s  ClockTime = 0 s

Time = 48.75

DICPCG:  Solving for T, Initial residual = 3.180082e-06, Final residual = 9.356063e-08, No Iterations 1
DICPCG:  Solving for T, Initial residual = 9.356063e-08, Final residual = 9.356063e-08, No Iterations 0
DICPCG:  Solving for T, Initial residual = 9.356063e-08, Final residual = 9.356063e-08, No Iterations 0
ExecutionTime = 0.43 s  ClockTime = 0 s

Time = 48.8

DICPCG:  Solving for T, Initial residual = 3.1557983e-06, Final residual = 9.2846184e-08, No Iterations 1
DICPCG:  Solving for T, Initial residual = 9.2846184e-08, Final residual = 9.2846184e-08, No Iterations 0
DICPCG:  Solving for T, Initial residual = 9.2846184e-08, Final residual = 9.2846184e-08, No Iterations 0
ExecutionTime = 0.43 s  ClockTime = 0 s

Time = 48.85

DICPCG:  Solving for T, Initial residual = 3.1317e-06, Final residual = 9.2137193e-08, No Iterations 1
DICPCG:  Solving for T, Initial residual = 9.2137193e-08, Final residual = 9.2137193e-08, No Iterations 0
DICPCG:  Solving for T, Initial residual = 9.2137193e-08, Final residual = 9.2137193e-08, No Iterations 0
ExecutionTime = 0.43 s  ClockTime = 0 s

Time = 48.9

DICPCG:  Solving for T, Initial residual = 3.1077858e-06, Final residual = 9.1433616e-08, No Iterations 1
DICPCG:  Solving for T, Initial residual = 9.1433616e-08, Final residual = 9.1433616e-08, No Iterations 0
DICPCG:  Solving for T, Initial residual = 9.1433616e-08, Final residual = 9.1433616e-08, No Iterations 0
ExecutionTime = 0.43 s  ClockTime = 0 s

Time = 48.95

DICPCG:  Solving for T, Initial residual = 3.0840541e-06, Final residual = 9.0735411e-08, No Iterations 1
DICPCG:  Solving for T, Initial residual = 9.0735411e-08, Final residual = 9.0735411e-08, No Iterations 0
DICPCG:  Solving for T, Initial residual = 9.0735411e-08, Final residual = 9.0735411e-08, No Iterations 0
ExecutionTime = 0.43 s  ClockTime = 0 s

Time = 49

DICPCG:  Solving for T, Initial residual = 3.0605037e-06, Final residual = 9.0042539e-08, No Iterations 1
DICPCG:  Solving for T, Initial residual = 9.0042539e-08, Final residual = 9.0042539e-08, No Iterations 0
DICPCG:  Solving for T, Initial residual = 9.0042539e-08, Final residual = 9.0042539e-08, No Iterations 0
ExecutionTime = 0.44 s  ClockTime = 0 s

Time = 49.05

DICPCG:  Solving for T, Initial residual = 3.0371331e-06, Final residual = 8.9354957e-08, No Iterations 1
DICPCG:  Solving for T, Initial residual = 8.9354957e-08, Final residual = 8.9354957e-08, No Iterations 0
DICPCG:  Solving for T, Initial residual = 8.9354957e-08, Final residual = 8.9354957e-08, No Iterations 0
ExecutionTime = 0.44 s  ClockTime = 0 s

runTime.value(): 49.05
snapshotsTime: 49
Time = 49.1

DICPCG:  Solving for T, Initial residual = 3.013941e-06, Final residual = 8.8672626e-08, No Iterations 1
DICPCG:  Solving for T, Initial residual = 8.8672626e-08, Final residual = 8.8672626e-08, No Iterations 0
DICPCG:  Solving for T, Initial residual = 8.8672626e-08, Final residual = 8.8672626e-08, No Iterations 0
ExecutionTime = 0.44 s  ClockTime = 0 s

Time = 49.15

DICPCG:  Solving for T, Initial residual = 2.990926e-06, Final residual = 8.7995505e-08, No Iterations 1
DICPCG:  Solving for T, Initial residual = 8.7995505e-08, Final residual = 8.7995505e-08, No Iterations 0
DICPCG:  Solving for T, Initial residual = 8.7995505e-08, Final residual = 8.7995505e-08, No Iterations 0
ExecutionTime = 0.44 s  ClockTime = 0 s

Time = 49.2

DICPCG:  Solving for T, Initial residual = 2.9680867e-06, Final residual = 8.7323555e-08, No Iterations 1
DICPCG:  Solving for T, Initial residual = 8.7323555e-08, Final residual = 8.7323555e-08, No Iterations 0
DICPCG:  Solving for T, Initial residual = 8.7323555e-08, Final residual = 8.7323555e-08, No Iterations 0
ExecutionTime = 0.44 s  ClockTime = 0 s

Time = 49.25

DICPCG:  Solving for T, Initial residual = 2.9454218e-06, Final residual = 8.6656735e-08, No Iterations 1
DICPCG:  Solving for T, Initial residual = 8.6656735e-08, Final residual = 8.6656735e-08, No Iterations 0
DICPCG:  Solving for T, Initial residual = 8.6656735e-08, Final residual = 8.6656735e-08, No Iterations 0
ExecutionTime = 0.44 s  ClockTime = 0 s

Time = 49.3

DICPCG:  Solving for T, Initial residual = 2.92293e-06, Final residual = 8.5995008e-08, No Iterations 1
DICPCG:  Solving for T, Initial residual = 8.5995008e-08, Final residual = 8.5995008e-08, No Iterations 0
DICPCG:  Solving for T, Initial residual = 8.5995008e-08, Final residual = 8.5995008e-08, No Iterations 0
ExecutionTime = 0.44 s  ClockTime = 0 s

Time = 49.35

DICPCG:  Solving for T, Initial residual = 2.90061e-06, Final residual = 8.5338334e-08, No Iterations 1
DICPCG:  Solving for T, Initial residual = 8.5338334e-08, Final residual = 8.5338334e-08, No Iterations 0
DICPCG:  Solving for T, Initial residual = 8.5338334e-08, Final residual = 8.5338334e-08, No Iterations 0
ExecutionTime = 0.44 s  ClockTime = 0 s

Time = 49.4

DICPCG:  Solving for T, Initial residual = 2.8784604e-06, Final residual = 8.4686675e-08, No Iterations 1
DICPCG:  Solving for T, Initial residual = 8.4686675e-08, Final residual = 8.4686675e-08, No Iterations 0
DICPCG:  Solving for T, Initial residual = 8.4686675e-08, Final residual = 8.4686675e-08, No Iterations 0
ExecutionTime = 0.44 s  ClockTime = 0 s

Time = 49.45

DICPCG:  Solving for T, Initial residual = 2.8564799e-06, Final residual = 8.4039991e-08, No Iterations 1
DICPCG:  Solving for T, Initial residual = 8.4039991e-08, Final residual = 8.4039991e-08, No Iterations 0
DICPCG:  Solving for T, Initial residual = 8.4039991e-08, Final residual = 8.4039991e-08, No Iterations 0
ExecutionTime = 0.44 s  ClockTime = 0 s

Time = 49.5

DICPCG:  Solving for T, Initial residual = 2.8346673e-06, Final residual = 8.3398246e-08, No Iterations 1
DICPCG:  Solving for T, Initial residual = 8.3398246e-08, Final residual = 8.3398246e-08, No Iterations 0
DICPCG:  Solving for T, Initial residual = 8.3398246e-08, Final residual = 8.3398246e-08, No Iterations 0
ExecutionTime = 0.44 s  ClockTime = 0 s

Time = 49.55

DICPCG:  Solving for T, Initial residual = 2.8130213e-06, Final residual = 8.2761401e-08, No Iterations 1
DICPCG:  Solving for T, Initial residual = 8.2761401e-08, Final residual = 8.2761401e-08, No Iterations 0
DICPCG:  Solving for T, Initial residual = 8.2761401e-08, Final residual = 8.2761401e-08, No Iterations 0
ExecutionTime = 0.44 s  ClockTime = 0 s

Time = 49.6

DICPCG:  Solving for T, Initial residual = 2.7915405e-06, Final residual = 8.212942e-08, No Iterations 1
DICPCG:  Solving for T, Initial residual = 8.212942e-08, Final residual = 8.212942e-08, No Iterations 0
DICPCG:  Solving for T, Initial residual = 8.212942e-08, Final residual = 8.212942e-08, No Iterations 0
ExecutionTime = 0.44 s  ClockTime = 0 s

Time = 49.65

DICPCG:  Solving for T, Initial residual = 2.7702238e-06, Final residual = 8.1502264e-08, No Iterations 1
DICPCG:  Solving for T, Initial residual = 8.1502264e-08, Final residual = 8.1502264e-08, No Iterations 0
DICPCG:  Solving for T, Initial residual = 8.1502264e-08, Final residual = 8.1502264e-08, No Iterations 0
ExecutionTime = 0.44 s  ClockTime = 0 s

Time = 49.7

DICPCG:  Solving for T, Initial residual = 2.7490698e-06, Final residual = 8.0879897e-08, No Iterations 1
DICPCG:  Solving for T, Initial residual = 8.0879897e-08, Final residual = 8.0879897e-08, No Iterations 0
DICPCG:  Solving for T, Initial residual = 8.0879897e-08, Final residual = 8.0879897e-08, No Iterations 0
ExecutionTime = 0.44 s  ClockTime = 0 s

Time = 49.75

DICPCG:  Solving for T, Initial residual = 2.7280774e-06, Final residual = 8.0262283e-08, No Iterations 1
DICPCG:  Solving for T, Initial residual = 8.0262283e-08, Final residual = 8.0262283e-08, No Iterations 0
DICPCG:  Solving for T, Initial residual = 8.0262283e-08, Final residual = 8.0262283e-08, No Iterations 0
ExecutionTime = 0.44 s  ClockTime = 0 s

Time = 49.8

DICPCG:  Solving for T, Initial residual = 2.7072453e-06, Final residual = 7.9649385e-08, No Iterations 1
DICPCG:  Solving for T, Initial residual = 7.9649385e-08, Final residual = 7.9649385e-08, No Iterations 0
DICPCG:  Solving for T, Initial residual = 7.9649385e-08, Final residual = 7.9649385e-08, No Iterations 0
ExecutionTime = 0.44 s  ClockTime = 0 s

Time = 49.85

DICPCG:  Solving for T, Initial residual = 2.6865722e-06, Final residual = 7.9041168e-08, No Iterations 1
DICPCG:  Solving for T, Initial residual = 7.9041168e-08, Final residual = 7.9041168e-08, No Iterations 0
DICPCG:  Solving for T, Initial residual = 7.9041168e-08, Final residual = 7.9041168e-08, No Iterations 0
ExecutionTime = 0.44 s  ClockTime = 0 s

Time = 49.9

DICPCG:  Solving for T, Initial residual = 2.6660571e-06, Final residual = 7.8437594e-08, No Iterations 1
DICPCG:  Solving for T, Initial residual = 7.8437594e-08, Final residual = 7.8437594e-08, No Iterations 0
DICPCG:  Solving for T, Initial residual = 7.8437594e-08, Final residual = 7.8437594e-08, No Iterations 0
ExecutionTime = 0.44 s  ClockTime = 0 s

Time = 49.95

DICPCG:  Solving for T, Initial residual = 2.6456986e-06, Final residual = 7.783863e-08, No Iterations 1
DICPCG:  Solving for T, Initial residual = 7.783863e-08, Final residual = 7.783863e-08, No Iterations 0
DICPCG:  Solving for T, Initial residual = 7.783863e-08, Final residual = 7.783863e-08, No Iterations 0
ExecutionTime = 0.44 s  ClockTime = 0 s

Time = 50

DICPCG:  Solving for T, Initial residual = 2.6254955e-06, Final residual = 7.724424e-08, No Iterations 1
DICPCG:  Solving for T, Initial residual = 7.724424e-08, Final residual = 7.724424e-08, No Iterations 0
DICPCG:  Solving for T, Initial residual = 7.724424e-08, Final residual = 7.724424e-08, No Iterations 0
ExecutionTime = 0.44 s  ClockTime = 0 s

End

snapshots number is: 50
snapshotsTime is: 50
write svd data

write Snapshot Matrix: (950 50)
write spatial mode Matrix: (950 50)
write temporal coefficient Matrix: (50 50)
write eigenvalue: 50
laplacian of modes Matrix: (500 5)
