/*---------------------------------------------------------------------------*\
| =========                 |                                                 |
| \\      /  F ield         | OpenFOAM: The Open Source CFD Toolbox           |
|  \\    /   O peration     | Version:  v2106                                 |
|   \\  /    A nd           | Website:  www.openfoam.com                      |
|    \\/     M anipulation  |                                                 |
\*---------------------------------------------------------------------------*/
Build  : _c15bfde3cb-20210624 OPENFOAM=2106
Arch   : "LSB;label=32;scalar=64"
Exec   : laplacianFoamDiscGalk
Date   : Nov 06 2022
Time   : 10:22:24
Host   : Sh-Ruan-matebook
PID    : 5294
I/O    : uncollated
Case   : /home/shenhui_ruan/gitFolder/RshOpenFOAMSourceCode/ROM_Discontinuity_Galerkin/Blocks
nProcs : 1
trapFpe: Floating point exception trapping enabled (FOAM_SIGFPE).
fileModificationChecking : Monitoring run-time modified files using timeStampMaster (fileModificationSkew 5, maxFileModificationPolls 20)
allowSystemOperations : Allowing user-supplied system call operations

// * * * * * * * * * * * * * * * * * * * * * * * * * * * * * * * * * * * * * //
Create time

Create mesh for time = 0


SIMPLE: no convergence criteria found. Calculations will run for 50 steps.

Reading field T

Reading diffusivity DT

No finite volume options present

Calculating temperature distribution

Time = 1

DICPCG:  Solving for T, Initial residual = 1, Final residual = 7.6160082e-07, No Iterations 73
DICPCG:  Solving for T, Initial residual = 3.7797948e-07, Final residual = 3.7797948e-07, No Iterations 0
DICPCG:  Solving for T, Initial residual = 3.7797948e-07, Final residual = 3.7797948e-07, No Iterations 0
ExecutionTime = 0.1 s  ClockTime = 0 s

Time = 2

DICPCG:  Solving for T, Initial residual = 0.0037847377, Final residual = 6.8459515e-07, No Iterations 64
DICPCG:  Solving for T, Initial residual = 6.8528966e-07, Final residual = 6.8528966e-07, No Iterations 0
DICPCG:  Solving for T, Initial residual = 6.8528966e-07, Final residual = 6.8528966e-07, No Iterations 0
ExecutionTime = 0.12 s  ClockTime = 0 s

Time = 3

DICPCG:  Solving for T, Initial residual = 0.00084995328, Final residual = 8.9328759e-07, No Iterations 59
DICPCG:  Solving for T, Initial residual = 8.9329947e-07, Final residual = 8.9329947e-07, No Iterations 0
DICPCG:  Solving for T, Initial residual = 8.9329947e-07, Final residual = 8.9329947e-07, No Iterations 0
ExecutionTime = 0.14 s  ClockTime = 0 s

Time = 4

DICPCG:  Solving for T, Initial residual = 0.00023956074, Final residual = 7.5257371e-07, No Iterations 49
DICPCG:  Solving for T, Initial residual = 7.5257364e-07, Final residual = 7.5257364e-07, No Iterations 0
DICPCG:  Solving for T, Initial residual = 7.5257364e-07, Final residual = 7.5257364e-07, No Iterations 0
ExecutionTime = 0.17 s  ClockTime = 0 s

Time = 5

DICPCG:  Solving for T, Initial residual = 6.8900394e-05, Final residual = 9.8215826e-07, No Iterations 35
DICPCG:  Solving for T, Initial residual = 9.8215831e-07, Final residual = 9.8215831e-07, No Iterations 0
DICPCG:  Solving for T, Initial residual = 9.8215831e-07, Final residual = 9.8215831e-07, No Iterations 0
ExecutionTime = 0.18 s  ClockTime = 0 s

Time = 6

DICPCG:  Solving for T, Initial residual = 1.9916633e-05, Final residual = 8.6568191e-07, No Iterations 22
DICPCG:  Solving for T, Initial residual = 8.6568172e-07, Final residual = 8.6568172e-07, No Iterations 0
DICPCG:  Solving for T, Initial residual = 8.6568172e-07, Final residual = 8.6568172e-07, No Iterations 0
ExecutionTime = 0.2 s  ClockTime = 0 s

Time = 7

DICPCG:  Solving for T, Initial residual = 5.6719884e-06, Final residual = 6.9593446e-07, No Iterations 24
DICPCG:  Solving for T, Initial residual = 6.959346e-07, Final residual = 6.959346e-07, No Iterations 0
DICPCG:  Solving for T, Initial residual = 6.959346e-07, Final residual = 6.959346e-07, No Iterations 0
ExecutionTime = 0.21 s  ClockTime = 0 s

Time = 8

DICPCG:  Solving for T, Initial residual = 1.7476598e-06, Final residual = 9.8825865e-07, No Iterations 22
DICPCG:  Solving for T, Initial residual = 9.8825846e-07, Final residual = 9.8825846e-07, No Iterations 0
DICPCG:  Solving for T, Initial residual = 9.8825846e-07, Final residual = 9.8825846e-07, No Iterations 0
ExecutionTime = 0.23 s  ClockTime = 0 s

Time = 9

DICPCG:  Solving for T, Initial residual = 1.0642132e-06, Final residual = 9.001787e-07, No Iterations 1
DICPCG:  Solving for T, Initial residual = 9.001787e-07, Final residual = 9.001787e-07, No Iterations 0
DICPCG:  Solving for T, Initial residual = 9.001787e-07, Final residual = 9.001787e-07, No Iterations 0
ExecutionTime = 0.24 s  ClockTime = 0 s

Time = 10

DICPCG:  Solving for T, Initial residual = 9.0038104e-07, Final residual = 9.0038104e-07, No Iterations 0
DICPCG:  Solving for T, Initial residual = 9.0038104e-07, Final residual = 9.0038104e-07, No Iterations 0
DICPCG:  Solving for T, Initial residual = 9.0038104e-07, Final residual = 9.0038104e-07, No Iterations 0
ExecutionTime = 0.34 s  ClockTime = 0 s

Time = 11

DICPCG:  Solving for T, Initial residual = 9.0038104e-07, Final residual = 9.0038104e-07, No Iterations 0
DICPCG:  Solving for T, Initial residual = 9.0038104e-07, Final residual = 9.0038104e-07, No Iterations 0
DICPCG:  Solving for T, Initial residual = 9.0038104e-07, Final residual = 9.0038104e-07, No Iterations 0
ExecutionTime = 0.35 s  ClockTime = 0 s

Time = 12

DICPCG:  Solving for T, Initial residual = 9.0038104e-07, Final residual = 9.0038104e-07, No Iterations 0
DICPCG:  Solving for T, Initial residual = 9.0038104e-07, Final residual = 9.0038104e-07, No Iterations 0
DICPCG:  Solving for T, Initial residual = 9.0038104e-07, Final residual = 9.0038104e-07, No Iterations 0
ExecutionTime = 0.36 s  ClockTime = 0 s

Time = 13

DICPCG:  Solving for T, Initial residual = 9.0038104e-07, Final residual = 9.0038104e-07, No Iterations 0
DICPCG:  Solving for T, Initial residual = 9.0038104e-07, Final residual = 9.0038104e-07, No Iterations 0
DICPCG:  Solving for T, Initial residual = 9.0038104e-07, Final residual = 9.0038104e-07, No Iterations 0
ExecutionTime = 0.38 s  ClockTime = 0 s

Time = 14

DICPCG:  Solving for T, Initial residual = 9.0038104e-07, Final residual = 9.0038104e-07, No Iterations 0
DICPCG:  Solving for T, Initial residual = 9.0038104e-07, Final residual = 9.0038104e-07, No Iterations 0
DICPCG:  Solving for T, Initial residual = 9.0038104e-07, Final residual = 9.0038104e-07, No Iterations 0
ExecutionTime = 0.39 s  ClockTime = 0 s

Time = 15

DICPCG:  Solving for T, Initial residual = 9.0038104e-07, Final residual = 9.0038104e-07, No Iterations 0
DICPCG:  Solving for T, Initial residual = 9.0038104e-07, Final residual = 9.0038104e-07, No Iterations 0
DICPCG:  Solving for T, Initial residual = 9.0038104e-07, Final residual = 9.0038104e-07, No Iterations 0
ExecutionTime = 0.39 s  ClockTime = 0 s

Time = 16

DICPCG:  Solving for T, Initial residual = 9.0038104e-07, Final residual = 9.0038104e-07, No Iterations 0
DICPCG:  Solving for T, Initial residual = 9.0038104e-07, Final residual = 9.0038104e-07, No Iterations 0
DICPCG:  Solving for T, Initial residual = 9.0038104e-07, Final residual = 9.0038104e-07, No Iterations 0
ExecutionTime = 0.4 s  ClockTime = 0 s

Time = 17

DICPCG:  Solving for T, Initial residual = 9.0038104e-07, Final residual = 9.0038104e-07, No Iterations 0
DICPCG:  Solving for T, Initial residual = 9.0038104e-07, Final residual = 9.0038104e-07, No Iterations 0
DICPCG:  Solving for T, Initial residual = 9.0038104e-07, Final residual = 9.0038104e-07, No Iterations 0
ExecutionTime = 0.41 s  ClockTime = 0 s

Time = 18

DICPCG:  Solving for T, Initial residual = 9.0038104e-07, Final residual = 9.0038104e-07, No Iterations 0
DICPCG:  Solving for T, Initial residual = 9.0038104e-07, Final residual = 9.0038104e-07, No Iterations 0
DICPCG:  Solving for T, Initial residual = 9.0038104e-07, Final residual = 9.0038104e-07, No Iterations 0
ExecutionTime = 0.42 s  ClockTime = 0 s

Time = 19

DICPCG:  Solving for T, Initial residual = 9.0038104e-07, Final residual = 9.0038104e-07, No Iterations 0
DICPCG:  Solving for T, Initial residual = 9.0038104e-07, Final residual = 9.0038104e-07, No Iterations 0
DICPCG:  Solving for T, Initial residual = 9.0038104e-07, Final residual = 9.0038104e-07, No Iterations 0
ExecutionTime = 0.43 s  ClockTime = 0 s

Time = 20

DICPCG:  Solving for T, Initial residual = 9.0038104e-07, Final residual = 9.0038104e-07, No Iterations 0
DICPCG:  Solving for T, Initial residual = 9.0038104e-07, Final residual = 9.0038104e-07, No Iterations 0
DICPCG:  Solving for T, Initial residual = 9.0038104e-07, Final residual = 9.0038104e-07, No Iterations 0
ExecutionTime = 0.56 s  ClockTime = 0 s

Time = 21

DICPCG:  Solving for T, Initial residual = 9.0038104e-07, Final residual = 9.0038104e-07, No Iterations 0
DICPCG:  Solving for T, Initial residual = 9.0038104e-07, Final residual = 9.0038104e-07, No Iterations 0
DICPCG:  Solving for T, Initial residual = 9.0038104e-07, Final residual = 9.0038104e-07, No Iterations 0
ExecutionTime = 0.57 s  ClockTime = 0 s

Time = 22

DICPCG:  Solving for T, Initial residual = 9.0038104e-07, Final residual = 9.0038104e-07, No Iterations 0
DICPCG:  Solving for T, Initial residual = 9.0038104e-07, Final residual = 9.0038104e-07, No Iterations 0
DICPCG:  Solving for T, Initial residual = 9.0038104e-07, Final residual = 9.0038104e-07, No Iterations 0
ExecutionTime = 0.58 s  ClockTime = 0 s

Time = 23

DICPCG:  Solving for T, Initial residual = 9.0038104e-07, Final residual = 9.0038104e-07, No Iterations 0
DICPCG:  Solving for T, Initial residual = 9.0038104e-07, Final residual = 9.0038104e-07, No Iterations 0
DICPCG:  Solving for T, Initial residual = 9.0038104e-07, Final residual = 9.0038104e-07, No Iterations 0
ExecutionTime = 0.58 s  ClockTime = 0 s

Time = 24

DICPCG:  Solving for T, Initial residual = 9.0038104e-07, Final residual = 9.0038104e-07, No Iterations 0
DICPCG:  Solving for T, Initial residual = 9.0038104e-07, Final residual = 9.0038104e-07, No Iterations 0
DICPCG:  Solving for T, Initial residual = 9.0038104e-07, Final residual = 9.0038104e-07, No Iterations 0
ExecutionTime = 0.59 s  ClockTime = 0 s

Time = 25

DICPCG:  Solving for T, Initial residual = 9.0038104e-07, Final residual = 9.0038104e-07, No Iterations 0
DICPCG:  Solving for T, Initial residual = 9.0038104e-07, Final residual = 9.0038104e-07, No Iterations 0
DICPCG:  Solving for T, Initial residual = 9.0038104e-07, Final residual = 9.0038104e-07, No Iterations 0
ExecutionTime = 0.6 s  ClockTime = 0 s

Time = 26

DICPCG:  Solving for T, Initial residual = 9.0038104e-07, Final residual = 9.0038104e-07, No Iterations 0
DICPCG:  Solving for T, Initial residual = 9.0038104e-07, Final residual = 9.0038104e-07, No Iterations 0
DICPCG:  Solving for T, Initial residual = 9.0038104e-07, Final residual = 9.0038104e-07, No Iterations 0
ExecutionTime = 0.62 s  ClockTime = 0 s

Time = 27

DICPCG:  Solving for T, Initial residual = 9.0038104e-07, Final residual = 9.0038104e-07, No Iterations 0
DICPCG:  Solving for T, Initial residual = 9.0038104e-07, Final residual = 9.0038104e-07, No Iterations 0
DICPCG:  Solving for T, Initial residual = 9.0038104e-07, Final residual = 9.0038104e-07, No Iterations 0
ExecutionTime = 0.63 s  ClockTime = 0 s

Time = 28

DICPCG:  Solving for T, Initial residual = 9.0038104e-07, Final residual = 9.0038104e-07, No Iterations 0
DICPCG:  Solving for T, Initial residual = 9.0038104e-07, Final residual = 9.0038104e-07, No Iterations 0
DICPCG:  Solving for T, Initial residual = 9.0038104e-07, Final residual = 9.0038104e-07, No Iterations 0
ExecutionTime = 0.64 s  ClockTime = 0 s

Time = 29

DICPCG:  Solving for T, Initial residual = 9.0038104e-07, Final residual = 9.0038104e-07, No Iterations 0
DICPCG:  Solving for T, Initial residual = 9.0038104e-07, Final residual = 9.0038104e-07, No Iterations 0
DICPCG:  Solving for T, Initial residual = 9.0038104e-07, Final residual = 9.0038104e-07, No Iterations 0
ExecutionTime = 0.65 s  ClockTime = 0 s

Time = 30

DICPCG:  Solving for T, Initial residual = 9.0038104e-07, Final residual = 9.0038104e-07, No Iterations 0
DICPCG:  Solving for T, Initial residual = 9.0038104e-07, Final residual = 9.0038104e-07, No Iterations 0
DICPCG:  Solving for T, Initial residual = 9.0038104e-07, Final residual = 9.0038104e-07, No Iterations 0
ExecutionTime = 0.77 s  ClockTime = 0 s

Time = 31

DICPCG:  Solving for T, Initial residual = 9.0038104e-07, Final residual = 9.0038104e-07, No Iterations 0
DICPCG:  Solving for T, Initial residual = 9.0038104e-07, Final residual = 9.0038104e-07, No Iterations 0
DICPCG:  Solving for T, Initial residual = 9.0038104e-07, Final residual = 9.0038104e-07, No Iterations 0
ExecutionTime = 0.78 s  ClockTime = 0 s

Time = 32

DICPCG:  Solving for T, Initial residual = 9.0038104e-07, Final residual = 9.0038104e-07, No Iterations 0
DICPCG:  Solving for T, Initial residual = 9.0038104e-07, Final residual = 9.0038104e-07, No Iterations 0
DICPCG:  Solving for T, Initial residual = 9.0038104e-07, Final residual = 9.0038104e-07, No Iterations 0
ExecutionTime = 0.79 s  ClockTime = 0 s

Time = 33

DICPCG:  Solving for T, Initial residual = 9.0038104e-07, Final residual = 9.0038104e-07, No Iterations 0
DICPCG:  Solving for T, Initial residual = 9.0038104e-07, Final residual = 9.0038104e-07, No Iterations 0
DICPCG:  Solving for T, Initial residual = 9.0038104e-07, Final residual = 9.0038104e-07, No Iterations 0
ExecutionTime = 0.8 s  ClockTime = 0 s

Time = 34

DICPCG:  Solving for T, Initial residual = 9.0038104e-07, Final residual = 9.0038104e-07, No Iterations 0
DICPCG:  Solving for T, Initial residual = 9.0038104e-07, Final residual = 9.0038104e-07, No Iterations 0
DICPCG:  Solving for T, Initial residual = 9.0038104e-07, Final residual = 9.0038104e-07, No Iterations 0
ExecutionTime = 0.81 s  ClockTime = 0 s

Time = 35

DICPCG:  Solving for T, Initial residual = 9.0038104e-07, Final residual = 9.0038104e-07, No Iterations 0
DICPCG:  Solving for T, Initial residual = 9.0038104e-07, Final residual = 9.0038104e-07, No Iterations 0
DICPCG:  Solving for T, Initial residual = 9.0038104e-07, Final residual = 9.0038104e-07, No Iterations 0
ExecutionTime = 0.81 s  ClockTime = 0 s

Time = 36

DICPCG:  Solving for T, Initial residual = 9.0038104e-07, Final residual = 9.0038104e-07, No Iterations 0
DICPCG:  Solving for T, Initial residual = 9.0038104e-07, Final residual = 9.0038104e-07, No Iterations 0
DICPCG:  Solving for T, Initial residual = 9.0038104e-07, Final residual = 9.0038104e-07, No Iterations 0
ExecutionTime = 0.82 s  ClockTime = 0 s

Time = 37

DICPCG:  Solving for T, Initial residual = 9.0038104e-07, Final residual = 9.0038104e-07, No Iterations 0
DICPCG:  Solving for T, Initial residual = 9.0038104e-07, Final residual = 9.0038104e-07, No Iterations 0
DICPCG:  Solving for T, Initial residual = 9.0038104e-07, Final residual = 9.0038104e-07, No Iterations 0
ExecutionTime = 0.83 s  ClockTime = 0 s

Time = 38

DICPCG:  Solving for T, Initial residual = 9.0038104e-07, Final residual = 9.0038104e-07, No Iterations 0
DICPCG:  Solving for T, Initial residual = 9.0038104e-07, Final residual = 9.0038104e-07, No Iterations 0
DICPCG:  Solving for T, Initial residual = 9.0038104e-07, Final residual = 9.0038104e-07, No Iterations 0
ExecutionTime = 0.84 s  ClockTime = 0 s

Time = 39

DICPCG:  Solving for T, Initial residual = 9.0038104e-07, Final residual = 9.0038104e-07, No Iterations 0
DICPCG:  Solving for T, Initial residual = 9.0038104e-07, Final residual = 9.0038104e-07, No Iterations 0
DICPCG:  Solving for T, Initial residual = 9.0038104e-07, Final residual = 9.0038104e-07, No Iterations 0
ExecutionTime = 0.85 s  ClockTime = 0 s

Time = 40

DICPCG:  Solving for T, Initial residual = 9.0038104e-07, Final residual = 9.0038104e-07, No Iterations 0
DICPCG:  Solving for T, Initial residual = 9.0038104e-07, Final residual = 9.0038104e-07, No Iterations 0
DICPCG:  Solving for T, Initial residual = 9.0038104e-07, Final residual = 9.0038104e-07, No Iterations 0
ExecutionTime = 0.96 s  ClockTime = 1 s

Time = 41

DICPCG:  Solving for T, Initial residual = 9.0038104e-07, Final residual = 9.0038104e-07, No Iterations 0
DICPCG:  Solving for T, Initial residual = 9.0038104e-07, Final residual = 9.0038104e-07, No Iterations 0
DICPCG:  Solving for T, Initial residual = 9.0038104e-07, Final residual = 9.0038104e-07, No Iterations 0
ExecutionTime = 0.98 s  ClockTime = 1 s

Time = 42

DICPCG:  Solving for T, Initial residual = 9.0038104e-07, Final residual = 9.0038104e-07, No Iterations 0
DICPCG:  Solving for T, Initial residual = 9.0038104e-07, Final residual = 9.0038104e-07, No Iterations 0
DICPCG:  Solving for T, Initial residual = 9.0038104e-07, Final residual = 9.0038104e-07, No Iterations 0
ExecutionTime = 0.98 s  ClockTime = 1 s

Time = 43

DICPCG:  Solving for T, Initial residual = 9.0038104e-07, Final residual = 9.0038104e-07, No Iterations 0
DICPCG:  Solving for T, Initial residual = 9.0038104e-07, Final residual = 9.0038104e-07, No Iterations 0
DICPCG:  Solving for T, Initial residual = 9.0038104e-07, Final residual = 9.0038104e-07, No Iterations 0
ExecutionTime = 1 s  ClockTime = 1 s

Time = 44

DICPCG:  Solving for T, Initial residual = 9.0038104e-07, Final residual = 9.0038104e-07, No Iterations 0
DICPCG:  Solving for T, Initial residual = 9.0038104e-07, Final residual = 9.0038104e-07, No Iterations 0
DICPCG:  Solving for T, Initial residual = 9.0038104e-07, Final residual = 9.0038104e-07, No Iterations 0
ExecutionTime = 1.01 s  ClockTime = 1 s

Time = 45

DICPCG:  Solving for T, Initial residual = 9.0038104e-07, Final residual = 9.0038104e-07, No Iterations 0
DICPCG:  Solving for T, Initial residual = 9.0038104e-07, Final residual = 9.0038104e-07, No Iterations 0
DICPCG:  Solving for T, Initial residual = 9.0038104e-07, Final residual = 9.0038104e-07, No Iterations 0
ExecutionTime = 1.02 s  ClockTime = 1 s

Time = 46

DICPCG:  Solving for T, Initial residual = 9.0038104e-07, Final residual = 9.0038104e-07, No Iterations 0
DICPCG:  Solving for T, Initial residual = 9.0038104e-07, Final residual = 9.0038104e-07, No Iterations 0
DICPCG:  Solving for T, Initial residual = 9.0038104e-07, Final residual = 9.0038104e-07, No Iterations 0
ExecutionTime = 1.03 s  ClockTime = 1 s

Time = 47

DICPCG:  Solving for T, Initial residual = 9.0038104e-07, Final residual = 9.0038104e-07, No Iterations 0
DICPCG:  Solving for T, Initial residual = 9.0038104e-07, Final residual = 9.0038104e-07, No Iterations 0
DICPCG:  Solving for T, Initial residual = 9.0038104e-07, Final residual = 9.0038104e-07, No Iterations 0
ExecutionTime = 1.04 s  ClockTime = 1 s

Time = 48

DICPCG:  Solving for T, Initial residual = 9.0038104e-07, Final residual = 9.0038104e-07, No Iterations 0
DICPCG:  Solving for T, Initial residual = 9.0038104e-07, Final residual = 9.0038104e-07, No Iterations 0
DICPCG:  Solving for T, Initial residual = 9.0038104e-07, Final residual = 9.0038104e-07, No Iterations 0
ExecutionTime = 1.05 s  ClockTime = 1 s

Time = 49

DICPCG:  Solving for T, Initial residual = 9.0038104e-07, Final residual = 9.0038104e-07, No Iterations 0
DICPCG:  Solving for T, Initial residual = 9.0038104e-07, Final residual = 9.0038104e-07, No Iterations 0
DICPCG:  Solving for T, Initial residual = 9.0038104e-07, Final residual = 9.0038104e-07, No Iterations 0
ExecutionTime = 1.06 s  ClockTime = 1 s

Time = 50

DICPCG:  Solving for T, Initial residual = 9.0038104e-07, Final residual = 9.0038104e-07, No Iterations 0
DICPCG:  Solving for T, Initial residual = 9.0038104e-07, Final residual = 9.0038104e-07, No Iterations 0
DICPCG:  Solving for T, Initial residual = 9.0038104e-07, Final residual = 9.0038104e-07, No Iterations 0
ExecutionTime = 1.18 s  ClockTime = 1 s


The simulation of FOM is finishing at 1.2 s.


The solver is finishing at 1.3 s.

