/*---------------------------------------------------------------------------*\
| =========                 |                                                 |
| \\      /  F ield         | OpenFOAM: The Open Source CFD Toolbox           |
|  \\    /   O peration     | Version:  v2106                                 |
|   \\  /    A nd           | Website:  www.openfoam.com                      |
|    \\/     M anipulation  |                                                 |
\*---------------------------------------------------------------------------*/
Build  : _c15bfde3cb-20210624 OPENFOAM=2106
Arch   : "LSB;label=32;scalar=64"
Exec   : laplacianFoamDiscGalk
Date   : Oct 25 2022
Time   : 16:15:27
Host   : ites-fps-ruanLX
PID    : 60929
I/O    : uncollated
Case   : /home/ruan/Desktop/Shenhui_ruan/OpenFOAM/OpenFOAMsourcecode/laplacianFoamROM_Discontinuity_Galerkin/Blocks
nProcs : 1
trapFpe: Floating point exception trapping enabled (FOAM_SIGFPE).
fileModificationChecking : Monitoring run-time modified files using timeStampMaster (fileModificationSkew 5, maxFileModificationPolls 20)
allowSystemOperations : Allowing user-supplied system call operations

// * * * * * * * * * * * * * * * * * * * * * * * * * * * * * * * * * * * * * //
Create time

Create mesh for time = 0


SIMPLE: no convergence criteria found. Calculations will run for 50 steps.

Reading field T

Reading diffusivity DT

No finite volume options present

Calculating temperature distribution

Time = 0.05

DICPCG:  Solving for T, Initial residual = 1, Final residual = 4.4638062e-07, No Iterations 64
DICPCG:  Solving for T, Initial residual = 2.1383058e-07, Final residual = 2.1383058e-07, No Iterations 0
DICPCG:  Solving for T, Initial residual = 2.1383058e-07, Final residual = 2.1383058e-07, No Iterations 0
ExecutionTime = 0.08 s  ClockTime = 0 s

Time = 0.1

DICPCG:  Solving for T, Initial residual = 0.021256551, Final residual = 7.5605473e-07, No Iterations 60
DICPCG:  Solving for T, Initial residual = 7.424025e-07, Final residual = 7.424025e-07, No Iterations 0
DICPCG:  Solving for T, Initial residual = 7.424025e-07, Final residual = 7.424025e-07, No Iterations 0
ExecutionTime = 0.09 s  ClockTime = 0 s

Time = 0.15

DICPCG:  Solving for T, Initial residual = 0.010400548, Final residual = 7.7116789e-07, No Iterations 55
DICPCG:  Solving for T, Initial residual = 7.635315e-07, Final residual = 7.635315e-07, No Iterations 0
DICPCG:  Solving for T, Initial residual = 7.635315e-07, Final residual = 7.635315e-07, No Iterations 0
ExecutionTime = 0.11 s  ClockTime = 0 s

Time = 0.2

DICPCG:  Solving for T, Initial residual = 0.0076551156, Final residual = 7.3267835e-07, No Iterations 54
DICPCG:  Solving for T, Initial residual = 7.2839551e-07, Final residual = 7.2839551e-07, No Iterations 0
DICPCG:  Solving for T, Initial residual = 7.2839551e-07, Final residual = 7.2839551e-07, No Iterations 0
ExecutionTime = 0.13 s  ClockTime = 0 s

Time = 0.25

DICPCG:  Solving for T, Initial residual = 0.006250481, Final residual = 7.6423505e-07, No Iterations 51
DICPCG:  Solving for T, Initial residual = 7.6138162e-07, Final residual = 7.6138162e-07, No Iterations 0
DICPCG:  Solving for T, Initial residual = 7.6138162e-07, Final residual = 7.6138162e-07, No Iterations 0
ExecutionTime = 0.14 s  ClockTime = 0 s

Time = 0.3

DICPCG:  Solving for T, Initial residual = 0.0053273425, Final residual = 9.3034094e-07, No Iterations 48
DICPCG:  Solving for T, Initial residual = 9.2804231e-07, Final residual = 9.2804231e-07, No Iterations 0
DICPCG:  Solving for T, Initial residual = 9.2804231e-07, Final residual = 9.2804231e-07, No Iterations 0
ExecutionTime = 0.16 s  ClockTime = 0 s

Time = 0.35

DICPCG:  Solving for T, Initial residual = 0.0046357557, Final residual = 9.2358409e-07, No Iterations 45
DICPCG:  Solving for T, Initial residual = 9.2204445e-07, Final residual = 9.2204445e-07, No Iterations 0
DICPCG:  Solving for T, Initial residual = 9.2204445e-07, Final residual = 9.2204445e-07, No Iterations 0
ExecutionTime = 0.17 s  ClockTime = 0 s

Time = 0.4

DICPCG:  Solving for T, Initial residual = 0.0040772471, Final residual = 9.4935158e-07, No Iterations 42
DICPCG:  Solving for T, Initial residual = 9.4828237e-07, Final residual = 9.4828237e-07, No Iterations 0
DICPCG:  Solving for T, Initial residual = 9.4828237e-07, Final residual = 9.4828237e-07, No Iterations 0
ExecutionTime = 0.18 s  ClockTime = 0 s

Time = 0.45

DICPCG:  Solving for T, Initial residual = 0.0036064179, Final residual = 8.5524373e-07, No Iterations 38
DICPCG:  Solving for T, Initial residual = 8.5457951e-07, Final residual = 8.5457951e-07, No Iterations 0
DICPCG:  Solving for T, Initial residual = 8.5457951e-07, Final residual = 8.5457951e-07, No Iterations 0
ExecutionTime = 0.19 s  ClockTime = 0 s

Time = 0.5

DICPCG:  Solving for T, Initial residual = 0.0031995009, Final residual = 9.3917767e-07, No Iterations 36
DICPCG:  Solving for T, Initial residual = 9.3867612e-07, Final residual = 9.3867612e-07, No Iterations 0
DICPCG:  Solving for T, Initial residual = 9.3867612e-07, Final residual = 9.3867612e-07, No Iterations 0
ExecutionTime = 0.21 s  ClockTime = 0 s

Time = 0.55

DICPCG:  Solving for T, Initial residual = 0.0028431972, Final residual = 7.3809261e-07, No Iterations 36
DICPCG:  Solving for T, Initial residual = 7.378226e-07, Final residual = 7.378226e-07, No Iterations 0
DICPCG:  Solving for T, Initial residual = 7.378226e-07, Final residual = 7.378226e-07, No Iterations 0
ExecutionTime = 0.22 s  ClockTime = 0 s

Time = 0.6

DICPCG:  Solving for T, Initial residual = 0.0025287955, Final residual = 9.7322188e-07, No Iterations 35
DICPCG:  Solving for T, Initial residual = 9.7297833e-07, Final residual = 9.7297833e-07, No Iterations 0
DICPCG:  Solving for T, Initial residual = 9.7297833e-07, Final residual = 9.7297833e-07, No Iterations 0
ExecutionTime = 0.23 s  ClockTime = 0 s

Time = 0.65

DICPCG:  Solving for T, Initial residual = 0.0022502191, Final residual = 7.9674907e-07, No Iterations 30
DICPCG:  Solving for T, Initial residual = 7.9660953e-07, Final residual = 7.9660953e-07, No Iterations 0
DICPCG:  Solving for T, Initial residual = 7.9660953e-07, Final residual = 7.9660953e-07, No Iterations 0
ExecutionTime = 0.24 s  ClockTime = 0 s

Time = 0.7

DICPCG:  Solving for T, Initial residual = 0.0020028616, Final residual = 8.6898848e-07, No Iterations 28
DICPCG:  Solving for T, Initial residual = 8.688803e-07, Final residual = 8.688803e-07, No Iterations 0
DICPCG:  Solving for T, Initial residual = 8.688803e-07, Final residual = 8.688803e-07, No Iterations 0
ExecutionTime = 0.24 s  ClockTime = 0 s

Time = 0.75

DICPCG:  Solving for T, Initial residual = 0.0017828603, Final residual = 9.3764511e-07, No Iterations 27
DICPCG:  Solving for T, Initial residual = 9.375647e-07, Final residual = 9.375647e-07, No Iterations 0
DICPCG:  Solving for T, Initial residual = 9.375647e-07, Final residual = 9.375647e-07, No Iterations 0
ExecutionTime = 0.25 s  ClockTime = 0 s

Time = 0.8

DICPCG:  Solving for T, Initial residual = 0.0015871118, Final residual = 7.4759589e-07, No Iterations 27
DICPCG:  Solving for T, Initial residual = 7.4755276e-07, Final residual = 7.4755276e-07, No Iterations 0
DICPCG:  Solving for T, Initial residual = 7.4755276e-07, Final residual = 7.4755276e-07, No Iterations 0
ExecutionTime = 0.26 s  ClockTime = 0 s

Time = 0.85

DICPCG:  Solving for T, Initial residual = 0.0014129018, Final residual = 9.482395e-07, No Iterations 26
DICPCG:  Solving for T, Initial residual = 9.4819669e-07, Final residual = 9.4819669e-07, No Iterations 0
DICPCG:  Solving for T, Initial residual = 9.4819669e-07, Final residual = 9.4819669e-07, No Iterations 0
ExecutionTime = 0.27 s  ClockTime = 0 s

Time = 0.9

DICPCG:  Solving for T, Initial residual = 0.0012578195, Final residual = 8.1273108e-07, No Iterations 26
DICPCG:  Solving for T, Initial residual = 8.1270783e-07, Final residual = 8.1270783e-07, No Iterations 0
DICPCG:  Solving for T, Initial residual = 8.1270783e-07, Final residual = 8.1270783e-07, No Iterations 0
ExecutionTime = 0.28 s  ClockTime = 0 s

Time = 0.95

DICPCG:  Solving for T, Initial residual = 0.0011197575, Final residual = 7.0470746e-07, No Iterations 26
DICPCG:  Solving for T, Initial residual = 7.0469508e-07, Final residual = 7.0469508e-07, No Iterations 0
DICPCG:  Solving for T, Initial residual = 7.0469508e-07, Final residual = 7.0469508e-07, No Iterations 0
ExecutionTime = 0.29 s  ClockTime = 0 s

Time = 1

DICPCG:  Solving for T, Initial residual = 0.00099685015, Final residual = 6.1559045e-07, No Iterations 26
DICPCG:  Solving for T, Initial residual = 6.155772e-07, Final residual = 6.155772e-07, No Iterations 0
DICPCG:  Solving for T, Initial residual = 6.155772e-07, Final residual = 6.155772e-07, No Iterations 0
ExecutionTime = 0.3 s  ClockTime = 0 s

Time = 1.05

DICPCG:  Solving for T, Initial residual = 0.00088741856, Final residual = 5.3985475e-07, No Iterations 26
DICPCG:  Solving for T, Initial residual = 5.3985054e-07, Final residual = 5.3985054e-07, No Iterations 0
DICPCG:  Solving for T, Initial residual = 5.3985054e-07, Final residual = 5.3985054e-07, No Iterations 0
ExecutionTime = 0.31 s  ClockTime = 0 s

Time = 1.1

DICPCG:  Solving for T, Initial residual = 0.00079000008, Final residual = 8.9889394e-07, No Iterations 25
DICPCG:  Solving for T, Initial residual = 8.988901e-07, Final residual = 8.988901e-07, No Iterations 0
DICPCG:  Solving for T, Initial residual = 8.988901e-07, Final residual = 8.988901e-07, No Iterations 0
ExecutionTime = 0.31 s  ClockTime = 0 s

Time = 1.15

DICPCG:  Solving for T, Initial residual = 0.00070327448, Final residual = 7.7202779e-07, No Iterations 25
DICPCG:  Solving for T, Initial residual = 7.7202114e-07, Final residual = 7.7202114e-07, No Iterations 0
DICPCG:  Solving for T, Initial residual = 7.7202114e-07, Final residual = 7.7202114e-07, No Iterations 0
ExecutionTime = 0.32 s  ClockTime = 0 s

Time = 1.2

DICPCG:  Solving for T, Initial residual = 0.00062606271, Final residual = 8.1724638e-07, No Iterations 18
DICPCG:  Solving for T, Initial residual = 8.1724034e-07, Final residual = 8.1724034e-07, No Iterations 0
DICPCG:  Solving for T, Initial residual = 8.1724034e-07, Final residual = 8.1724034e-07, No Iterations 0
ExecutionTime = 0.33 s  ClockTime = 0 s

Time = 1.25

DICPCG:  Solving for T, Initial residual = 0.00055734236, Final residual = 6.337004e-07, No Iterations 18
DICPCG:  Solving for T, Initial residual = 6.336986e-07, Final residual = 6.336986e-07, No Iterations 0
DICPCG:  Solving for T, Initial residual = 6.336986e-07, Final residual = 6.336986e-07, No Iterations 0
ExecutionTime = 0.34 s  ClockTime = 0 s

Time = 1.3

DICPCG:  Solving for T, Initial residual = 0.00049614957, Final residual = 9.167888e-07, No Iterations 17
DICPCG:  Solving for T, Initial residual = 9.167923e-07, Final residual = 9.167923e-07, No Iterations 0
DICPCG:  Solving for T, Initial residual = 9.167923e-07, Final residual = 9.167923e-07, No Iterations 0
ExecutionTime = 0.34 s  ClockTime = 0 s

Time = 1.35

DICPCG:  Solving for T, Initial residual = 0.00044169735, Final residual = 7.9252497e-07, No Iterations 17
DICPCG:  Solving for T, Initial residual = 7.9252317e-07, Final residual = 7.9252317e-07, No Iterations 0
DICPCG:  Solving for T, Initial residual = 7.9252317e-07, Final residual = 7.9252317e-07, No Iterations 0
ExecutionTime = 0.35 s  ClockTime = 0 s

Time = 1.4

DICPCG:  Solving for T, Initial residual = 0.00039319632, Final residual = 7.0064102e-07, No Iterations 17
DICPCG:  Solving for T, Initial residual = 7.0063966e-07, Final residual = 7.0063966e-07, No Iterations 0
DICPCG:  Solving for T, Initial residual = 7.0063966e-07, Final residual = 7.0063966e-07, No Iterations 0
ExecutionTime = 0.36 s  ClockTime = 0 s

Time = 1.45

DICPCG:  Solving for T, Initial residual = 0.00035002109, Final residual = 6.2224372e-07, No Iterations 17
DICPCG:  Solving for T, Initial residual = 6.222427e-07, Final residual = 6.222427e-07, No Iterations 0
DICPCG:  Solving for T, Initial residual = 6.222427e-07, Final residual = 6.222427e-07, No Iterations 0
ExecutionTime = 0.36 s  ClockTime = 0 s

Time = 1.5

DICPCG:  Solving for T, Initial residual = 0.00031158656, Final residual = 5.5331145e-07, No Iterations 17
DICPCG:  Solving for T, Initial residual = 5.5331066e-07, Final residual = 5.5331066e-07, No Iterations 0
DICPCG:  Solving for T, Initial residual = 5.5331066e-07, Final residual = 5.5331066e-07, No Iterations 0
ExecutionTime = 0.37 s  ClockTime = 0 s

Time = 1.55

DICPCG:  Solving for T, Initial residual = 0.00027737218, Final residual = 9.7843521e-07, No Iterations 16
DICPCG:  Solving for T, Initial residual = 9.7843402e-07, Final residual = 9.7843402e-07, No Iterations 0
DICPCG:  Solving for T, Initial residual = 9.7843402e-07, Final residual = 9.7843402e-07, No Iterations 0
ExecutionTime = 0.38 s  ClockTime = 0 s

Time = 1.6

DICPCG:  Solving for T, Initial residual = 0.00024692181, Final residual = 8.7191443e-07, No Iterations 16
DICPCG:  Solving for T, Initial residual = 8.7191349e-07, Final residual = 8.7191349e-07, No Iterations 0
DICPCG:  Solving for T, Initial residual = 8.7191349e-07, Final residual = 8.7191349e-07, No Iterations 0
ExecutionTime = 0.39 s  ClockTime = 0 s

Time = 1.65

DICPCG:  Solving for T, Initial residual = 0.00021980676, Final residual = 7.6947498e-07, No Iterations 16
DICPCG:  Solving for T, Initial residual = 7.6947426e-07, Final residual = 7.6947426e-07, No Iterations 0
DICPCG:  Solving for T, Initial residual = 7.6947426e-07, Final residual = 7.6947426e-07, No Iterations 0
ExecutionTime = 0.39 s  ClockTime = 0 s

Time = 1.7

DICPCG:  Solving for T, Initial residual = 0.00019567003, Final residual = 9.8524367e-07, No Iterations 15
DICPCG:  Solving for T, Initial residual = 9.8524291e-07, Final residual = 9.8524291e-07, No Iterations 0
DICPCG:  Solving for T, Initial residual = 9.8524291e-07, Final residual = 9.8524291e-07, No Iterations 0
ExecutionTime = 0.4 s  ClockTime = 0 s

Time = 1.75

DICPCG:  Solving for T, Initial residual = 0.00017416079, Final residual = 7.9021971e-07, No Iterations 15
DICPCG:  Solving for T, Initial residual = 7.9022076e-07, Final residual = 7.9022076e-07, No Iterations 0
DICPCG:  Solving for T, Initial residual = 7.9022076e-07, Final residual = 7.9022076e-07, No Iterations 0
ExecutionTime = 0.41 s  ClockTime = 0 s

Time = 1.8

DICPCG:  Solving for T, Initial residual = 0.00015503587, Final residual = 7.1293827e-07, No Iterations 15
DICPCG:  Solving for T, Initial residual = 7.12939e-07, Final residual = 7.12939e-07, No Iterations 0
DICPCG:  Solving for T, Initial residual = 7.12939e-07, Final residual = 7.12939e-07, No Iterations 0
ExecutionTime = 0.41 s  ClockTime = 0 s

Time = 1.85

DICPCG:  Solving for T, Initial residual = 0.00013801072, Final residual = 6.3202836e-07, No Iterations 15
DICPCG:  Solving for T, Initial residual = 6.3202836e-07, Final residual = 6.3202836e-07, No Iterations 0
DICPCG:  Solving for T, Initial residual = 6.3202836e-07, Final residual = 6.3202836e-07, No Iterations 0
ExecutionTime = 0.42 s  ClockTime = 0 s

Time = 1.9

DICPCG:  Solving for T, Initial residual = 0.00012285573, Final residual = 5.6456848e-07, No Iterations 15
DICPCG:  Solving for T, Initial residual = 5.6456848e-07, Final residual = 5.6456848e-07, No Iterations 0
DICPCG:  Solving for T, Initial residual = 5.6456848e-07, Final residual = 5.6456848e-07, No Iterations 0
ExecutionTime = 0.43 s  ClockTime = 0 s

Time = 1.95

DICPCG:  Solving for T, Initial residual = 0.00010936425, Final residual = 9.5837212e-07, No Iterations 14
DICPCG:  Solving for T, Initial residual = 9.5837212e-07, Final residual = 9.5837212e-07, No Iterations 0
DICPCG:  Solving for T, Initial residual = 9.5837212e-07, Final residual = 9.5837212e-07, No Iterations 0
ExecutionTime = 0.43 s  ClockTime = 0 s

Time = 2

DICPCG:  Solving for T, Initial residual = 9.7329494e-05, Final residual = 8.5728376e-07, No Iterations 14
DICPCG:  Solving for T, Initial residual = 8.5728376e-07, Final residual = 8.5728376e-07, No Iterations 0
DICPCG:  Solving for T, Initial residual = 8.5728376e-07, Final residual = 8.5728376e-07, No Iterations 0
ExecutionTime = 0.44 s  ClockTime = 0 s

Time = 2.05

DICPCG:  Solving for T, Initial residual = 8.6640251e-05, Final residual = 7.7214956e-07, No Iterations 14
DICPCG:  Solving for T, Initial residual = 7.7214956e-07, Final residual = 7.7214956e-07, No Iterations 0
DICPCG:  Solving for T, Initial residual = 7.7214956e-07, Final residual = 7.7214956e-07, No Iterations 0
ExecutionTime = 0.45 s  ClockTime = 0 s

Time = 2.1

DICPCG:  Solving for T, Initial residual = 7.7125672e-05, Final residual = 6.8439705e-07, No Iterations 14
DICPCG:  Solving for T, Initial residual = 6.8439705e-07, Final residual = 6.8439705e-07, No Iterations 0
DICPCG:  Solving for T, Initial residual = 6.8439705e-07, Final residual = 6.8439705e-07, No Iterations 0
ExecutionTime = 0.45 s  ClockTime = 0 s

Time = 2.15

DICPCG:  Solving for T, Initial residual = 6.8656454e-05, Final residual = 6.091642e-07, No Iterations 14
DICPCG:  Solving for T, Initial residual = 6.091642e-07, Final residual = 6.091642e-07, No Iterations 0
DICPCG:  Solving for T, Initial residual = 6.091642e-07, Final residual = 6.091642e-07, No Iterations 0
ExecutionTime = 0.46 s  ClockTime = 0 s

Time = 2.2

DICPCG:  Solving for T, Initial residual = 6.1117011e-05, Final residual = 5.424952e-07, No Iterations 14
DICPCG:  Solving for T, Initial residual = 5.424952e-07, Final residual = 5.424952e-07, No Iterations 0
DICPCG:  Solving for T, Initial residual = 5.424952e-07, Final residual = 5.424952e-07, No Iterations 0
ExecutionTime = 0.46 s  ClockTime = 0 s

Time = 2.25

DICPCG:  Solving for T, Initial residual = 5.4405564e-05, Final residual = 4.8275583e-07, No Iterations 14
DICPCG:  Solving for T, Initial residual = 4.8275583e-07, Final residual = 4.8275583e-07, No Iterations 0
DICPCG:  Solving for T, Initial residual = 4.8275583e-07, Final residual = 4.8275583e-07, No Iterations 0
ExecutionTime = 0.47 s  ClockTime = 0 s

Time = 2.3

DICPCG:  Solving for T, Initial residual = 4.8431098e-05, Final residual = 4.2983694e-07, No Iterations 14
DICPCG:  Solving for T, Initial residual = 4.2983694e-07, Final residual = 4.2983694e-07, No Iterations 0
DICPCG:  Solving for T, Initial residual = 4.2983694e-07, Final residual = 4.2983694e-07, No Iterations 0
ExecutionTime = 0.48 s  ClockTime = 0 s

Time = 2.35

DICPCG:  Solving for T, Initial residual = 4.3112722e-05, Final residual = 3.8257499e-07, No Iterations 14
DICPCG:  Solving for T, Initial residual = 3.8257499e-07, Final residual = 3.8257499e-07, No Iterations 0
DICPCG:  Solving for T, Initial residual = 3.8257499e-07, Final residual = 3.8257499e-07, No Iterations 0
ExecutionTime = 0.48 s  ClockTime = 0 s

Time = 2.4

DICPCG:  Solving for T, Initial residual = 3.8378366e-05, Final residual = 8.9373386e-07, No Iterations 13
DICPCG:  Solving for T, Initial residual = 8.9373386e-07, Final residual = 8.9373386e-07, No Iterations 0
DICPCG:  Solving for T, Initial residual = 8.9373386e-07, Final residual = 8.9373386e-07, No Iterations 0
ExecutionTime = 0.49 s  ClockTime = 0 s

Time = 2.45

DICPCG:  Solving for T, Initial residual = 3.4140901e-05, Final residual = 7.5829383e-07, No Iterations 13
DICPCG:  Solving for T, Initial residual = 7.5829383e-07, Final residual = 7.5829383e-07, No Iterations 0
DICPCG:  Solving for T, Initial residual = 7.5829383e-07, Final residual = 7.5829383e-07, No Iterations 0
ExecutionTime = 0.5 s  ClockTime = 0 s

Time = 2.5

DICPCG:  Solving for T, Initial residual = 3.0392697e-05, Final residual = 7.1530472e-07, No Iterations 13
DICPCG:  Solving for T, Initial residual = 7.1530472e-07, Final residual = 7.1530472e-07, No Iterations 0
DICPCG:  Solving for T, Initial residual = 7.1530472e-07, Final residual = 7.1530472e-07, No Iterations 0
ExecutionTime = 0.5 s  ClockTime = 0 s

Time = 2.55

DICPCG:  Solving for T, Initial residual = 2.7053826e-05, Final residual = 6.3762876e-07, No Iterations 13
DICPCG:  Solving for T, Initial residual = 6.3762876e-07, Final residual = 6.3762876e-07, No Iterations 0
DICPCG:  Solving for T, Initial residual = 6.3762876e-07, Final residual = 6.3762876e-07, No Iterations 0
ExecutionTime = 0.51 s  ClockTime = 1 s

Time = 2.6

DICPCG:  Solving for T, Initial residual = 2.4083318e-05, Final residual = 5.868149e-07, No Iterations 13
DICPCG:  Solving for T, Initial residual = 5.868149e-07, Final residual = 5.868149e-07, No Iterations 0
DICPCG:  Solving for T, Initial residual = 5.868149e-07, Final residual = 5.868149e-07, No Iterations 0
ExecutionTime = 0.52 s  ClockTime = 1 s

Time = 2.65

DICPCG:  Solving for T, Initial residual = 2.1437666e-05, Final residual = 9.3316197e-07, No Iterations 12
DICPCG:  Solving for T, Initial residual = 9.3316197e-07, Final residual = 9.3316197e-07, No Iterations 0
DICPCG:  Solving for T, Initial residual = 9.3316197e-07, Final residual = 9.3316197e-07, No Iterations 0
ExecutionTime = 0.52 s  ClockTime = 1 s

Time = 2.7

DICPCG:  Solving for T, Initial residual = 1.905864e-05, Final residual = 8.5454632e-07, No Iterations 12
DICPCG:  Solving for T, Initial residual = 8.5454632e-07, Final residual = 8.5454632e-07, No Iterations 0
DICPCG:  Solving for T, Initial residual = 8.5454632e-07, Final residual = 8.5454632e-07, No Iterations 0
ExecutionTime = 0.53 s  ClockTime = 1 s

Time = 2.75

DICPCG:  Solving for T, Initial residual = 1.6964107e-05, Final residual = 7.5884964e-07, No Iterations 12
DICPCG:  Solving for T, Initial residual = 7.5884964e-07, Final residual = 7.5884964e-07, No Iterations 0
DICPCG:  Solving for T, Initial residual = 7.5884964e-07, Final residual = 7.5884964e-07, No Iterations 0
ExecutionTime = 0.53 s  ClockTime = 1 s

Time = 2.8

DICPCG:  Solving for T, Initial residual = 1.5102486e-05, Final residual = 9.1002697e-07, No Iterations 11
DICPCG:  Solving for T, Initial residual = 9.1002697e-07, Final residual = 9.1002697e-07, No Iterations 0
DICPCG:  Solving for T, Initial residual = 9.1002697e-07, Final residual = 9.1002697e-07, No Iterations 0
ExecutionTime = 0.54 s  ClockTime = 1 s

Time = 2.85

DICPCG:  Solving for T, Initial residual = 1.3420978e-05, Final residual = 8.178342e-07, No Iterations 11
DICPCG:  Solving for T, Initial residual = 8.178342e-07, Final residual = 8.178342e-07, No Iterations 0
DICPCG:  Solving for T, Initial residual = 8.178342e-07, Final residual = 8.178342e-07, No Iterations 0
ExecutionTime = 0.55 s  ClockTime = 1 s

Time = 2.9

DICPCG:  Solving for T, Initial residual = 1.1943116e-05, Final residual = 6.8913147e-07, No Iterations 11
DICPCG:  Solving for T, Initial residual = 6.8913147e-07, Final residual = 6.8913147e-07, No Iterations 0
DICPCG:  Solving for T, Initial residual = 6.8913147e-07, Final residual = 6.8913147e-07, No Iterations 0
ExecutionTime = 0.55 s  ClockTime = 1 s

Time = 2.95

DICPCG:  Solving for T, Initial residual = 1.0633068e-05, Final residual = 9.1765364e-07, No Iterations 10
DICPCG:  Solving for T, Initial residual = 9.1765364e-07, Final residual = 9.1765364e-07, No Iterations 0
DICPCG:  Solving for T, Initial residual = 9.1765364e-07, Final residual = 9.1765364e-07, No Iterations 0
ExecutionTime = 0.56 s  ClockTime = 1 s

Time = 3

DICPCG:  Solving for T, Initial residual = 9.4581988e-06, Final residual = 9.2701533e-07, No Iterations 9
DICPCG:  Solving for T, Initial residual = 9.2701533e-07, Final residual = 9.2701533e-07, No Iterations 0
DICPCG:  Solving for T, Initial residual = 9.2701533e-07, Final residual = 9.2701533e-07, No Iterations 0
ExecutionTime = 0.57 s  ClockTime = 1 s

Time = 3.05

DICPCG:  Solving for T, Initial residual = 8.4228908e-06, Final residual = 7.2552985e-07, No Iterations 9
DICPCG:  Solving for T, Initial residual = 7.2552985e-07, Final residual = 7.2552985e-07, No Iterations 0
DICPCG:  Solving for T, Initial residual = 7.2552985e-07, Final residual = 7.2552985e-07, No Iterations 0
ExecutionTime = 0.57 s  ClockTime = 1 s

Time = 3.1

DICPCG:  Solving for T, Initial residual = 7.5098987e-06, Final residual = 8.2912189e-07, No Iterations 9
DICPCG:  Solving for T, Initial residual = 8.2912189e-07, Final residual = 8.2912189e-07, No Iterations 0
DICPCG:  Solving for T, Initial residual = 8.2912189e-07, Final residual = 8.2912189e-07, No Iterations 0
ExecutionTime = 0.58 s  ClockTime = 1 s

Time = 3.15

DICPCG:  Solving for T, Initial residual = 6.6842501e-06, Final residual = 6.36723e-07, No Iterations 9
DICPCG:  Solving for T, Initial residual = 6.36723e-07, Final residual = 6.36723e-07, No Iterations 0
DICPCG:  Solving for T, Initial residual = 6.36723e-07, Final residual = 6.36723e-07, No Iterations 0
ExecutionTime = 0.58 s  ClockTime = 1 s

Time = 3.2

DICPCG:  Solving for T, Initial residual = 5.9549062e-06, Final residual = 6.3174863e-07, No Iterations 9
DICPCG:  Solving for T, Initial residual = 6.3174863e-07, Final residual = 6.3174863e-07, No Iterations 0
DICPCG:  Solving for T, Initial residual = 6.3174863e-07, Final residual = 6.3174863e-07, No Iterations 0
ExecutionTime = 0.59 s  ClockTime = 1 s

Time = 3.25

DICPCG:  Solving for T, Initial residual = 5.298465e-06, Final residual = 9.8720325e-07, No Iterations 8
DICPCG:  Solving for T, Initial residual = 9.8720325e-07, Final residual = 9.8720325e-07, No Iterations 0
DICPCG:  Solving for T, Initial residual = 9.8720325e-07, Final residual = 9.8720325e-07, No Iterations 0
ExecutionTime = 0.6 s  ClockTime = 1 s

Time = 3.3

DICPCG:  Solving for T, Initial residual = 4.7343904e-06, Final residual = 5.9943306e-07, No Iterations 8
DICPCG:  Solving for T, Initial residual = 5.9943306e-07, Final residual = 5.9943306e-07, No Iterations 0
DICPCG:  Solving for T, Initial residual = 5.9943306e-07, Final residual = 5.9943306e-07, No Iterations 0
ExecutionTime = 0.6 s  ClockTime = 1 s

Time = 3.35

DICPCG:  Solving for T, Initial residual = 4.2180095e-06, Final residual = 8.3120242e-07, No Iterations 7
DICPCG:  Solving for T, Initial residual = 8.3120242e-07, Final residual = 8.3120242e-07, No Iterations 0
DICPCG:  Solving for T, Initial residual = 8.3120242e-07, Final residual = 8.3120242e-07, No Iterations 0
ExecutionTime = 0.61 s  ClockTime = 1 s

Time = 3.4

DICPCG:  Solving for T, Initial residual = 3.7502531e-06, Final residual = 6.1567227e-07, No Iterations 7
DICPCG:  Solving for T, Initial residual = 6.1567227e-07, Final residual = 6.1567227e-07, No Iterations 0
DICPCG:  Solving for T, Initial residual = 6.1567227e-07, Final residual = 6.1567227e-07, No Iterations 0
ExecutionTime = 0.61 s  ClockTime = 1 s

Time = 3.45

DICPCG:  Solving for T, Initial residual = 3.3587428e-06, Final residual = 5.7319069e-07, No Iterations 9
DICPCG:  Solving for T, Initial residual = 5.7319069e-07, Final residual = 5.7319069e-07, No Iterations 0
DICPCG:  Solving for T, Initial residual = 5.7319069e-07, Final residual = 5.7319069e-07, No Iterations 0
ExecutionTime = 0.62 s  ClockTime = 1 s

Time = 3.5

DICPCG:  Solving for T, Initial residual = 2.9528933e-06, Final residual = 8.9171583e-07, No Iterations 8
DICPCG:  Solving for T, Initial residual = 8.9171583e-07, Final residual = 8.9171583e-07, No Iterations 0
DICPCG:  Solving for T, Initial residual = 8.9171583e-07, Final residual = 8.9171583e-07, No Iterations 0
ExecutionTime = 0.62 s  ClockTime = 1 s

Time = 3.55

DICPCG:  Solving for T, Initial residual = 2.6851419e-06, Final residual = 9.5415508e-07, No Iterations 7
DICPCG:  Solving for T, Initial residual = 9.5415508e-07, Final residual = 9.5415508e-07, No Iterations 0
DICPCG:  Solving for T, Initial residual = 9.5415508e-07, Final residual = 9.5415508e-07, No Iterations 0
ExecutionTime = 0.63 s  ClockTime = 1 s

Time = 3.6

DICPCG:  Solving for T, Initial residual = 2.4433997e-06, Final residual = 9.5521356e-07, No Iterations 7
DICPCG:  Solving for T, Initial residual = 9.5521356e-07, Final residual = 9.5521356e-07, No Iterations 0
DICPCG:  Solving for T, Initial residual = 9.5521356e-07, Final residual = 9.5521356e-07, No Iterations 0
ExecutionTime = 0.63 s  ClockTime = 1 s

Time = 3.65

DICPCG:  Solving for T, Initial residual = 2.2504328e-06, Final residual = 7.2138532e-07, No Iterations 9
DICPCG:  Solving for T, Initial residual = 7.2138532e-07, Final residual = 7.2138532e-07, No Iterations 0
DICPCG:  Solving for T, Initial residual = 7.2138532e-07, Final residual = 7.2138532e-07, No Iterations 0
ExecutionTime = 0.64 s  ClockTime = 1 s

Time = 3.7

DICPCG:  Solving for T, Initial residual = 1.8802703e-06, Final residual = 4.8358441e-07, No Iterations 8
DICPCG:  Solving for T, Initial residual = 4.8358441e-07, Final residual = 4.8358441e-07, No Iterations 0
DICPCG:  Solving for T, Initial residual = 4.8358441e-07, Final residual = 4.8358441e-07, No Iterations 0
ExecutionTime = 0.65 s  ClockTime = 1 s

Time = 3.75

DICPCG:  Solving for T, Initial residual = 1.6991819e-06, Final residual = 8.6049345e-07, No Iterations 7
DICPCG:  Solving for T, Initial residual = 8.6049345e-07, Final residual = 8.6049345e-07, No Iterations 0
DICPCG:  Solving for T, Initial residual = 8.6049345e-07, Final residual = 8.6049345e-07, No Iterations 0
ExecutionTime = 0.65 s  ClockTime = 1 s

Time = 3.8

DICPCG:  Solving for T, Initial residual = 1.5971928e-06, Final residual = 4.7943269e-07, No Iterations 9
DICPCG:  Solving for T, Initial residual = 4.7943269e-07, Final residual = 4.7943269e-07, No Iterations 0
DICPCG:  Solving for T, Initial residual = 4.7943269e-07, Final residual = 4.7943269e-07, No Iterations 0
ExecutionTime = 0.66 s  ClockTime = 1 s

Time = 3.85

DICPCG:  Solving for T, Initial residual = 1.3577151e-06, Final residual = 6.5970208e-07, No Iterations 8
DICPCG:  Solving for T, Initial residual = 6.5970208e-07, Final residual = 6.5970208e-07, No Iterations 0
DICPCG:  Solving for T, Initial residual = 6.5970208e-07, Final residual = 6.5970208e-07, No Iterations 0
ExecutionTime = 0.66 s  ClockTime = 1 s

Time = 3.9

DICPCG:  Solving for T, Initial residual = 1.2794885e-06, Final residual = 7.7134706e-07, No Iterations 7
DICPCG:  Solving for T, Initial residual = 7.7134706e-07, Final residual = 7.7134706e-07, No Iterations 0
DICPCG:  Solving for T, Initial residual = 7.7134706e-07, Final residual = 7.7134706e-07, No Iterations 0
ExecutionTime = 0.67 s  ClockTime = 1 s

Time = 3.95

DICPCG:  Solving for T, Initial residual = 1.25557e-06, Final residual = 3.3429761e-07, No Iterations 9
DICPCG:  Solving for T, Initial residual = 3.3429761e-07, Final residual = 3.3429761e-07, No Iterations 0
DICPCG:  Solving for T, Initial residual = 3.3429761e-07, Final residual = 3.3429761e-07, No Iterations 0
ExecutionTime = 0.67 s  ClockTime = 1 s

Time = 4

DICPCG:  Solving for T, Initial residual = 9.5439916e-07, Final residual = 9.5439916e-07, No Iterations 0
DICPCG:  Solving for T, Initial residual = 9.5439916e-07, Final residual = 9.5439916e-07, No Iterations 0
DICPCG:  Solving for T, Initial residual = 9.5439916e-07, Final residual = 9.5439916e-07, No Iterations 0
ExecutionTime = 0.68 s  ClockTime = 1 s

Time = 4.05

DICPCG:  Solving for T, Initial residual = 9.5439916e-07, Final residual = 9.5439916e-07, No Iterations 0
DICPCG:  Solving for T, Initial residual = 9.5439916e-07, Final residual = 9.5439916e-07, No Iterations 0
DICPCG:  Solving for T, Initial residual = 9.5439916e-07, Final residual = 9.5439916e-07, No Iterations 0
ExecutionTime = 0.68 s  ClockTime = 1 s

Time = 4.1

DICPCG:  Solving for T, Initial residual = 9.5439916e-07, Final residual = 9.5439916e-07, No Iterations 0
DICPCG:  Solving for T, Initial residual = 9.5439916e-07, Final residual = 9.5439916e-07, No Iterations 0
DICPCG:  Solving for T, Initial residual = 9.5439916e-07, Final residual = 9.5439916e-07, No Iterations 0
ExecutionTime = 0.68 s  ClockTime = 1 s

Time = 4.15

DICPCG:  Solving for T, Initial residual = 9.5439916e-07, Final residual = 9.5439916e-07, No Iterations 0
DICPCG:  Solving for T, Initial residual = 9.5439916e-07, Final residual = 9.5439916e-07, No Iterations 0
DICPCG:  Solving for T, Initial residual = 9.5439916e-07, Final residual = 9.5439916e-07, No Iterations 0
ExecutionTime = 0.69 s  ClockTime = 1 s

Time = 4.2

DICPCG:  Solving for T, Initial residual = 9.5439916e-07, Final residual = 9.5439916e-07, No Iterations 0
DICPCG:  Solving for T, Initial residual = 9.5439916e-07, Final residual = 9.5439916e-07, No Iterations 0
DICPCG:  Solving for T, Initial residual = 9.5439916e-07, Final residual = 9.5439916e-07, No Iterations 0
ExecutionTime = 0.69 s  ClockTime = 1 s

Time = 4.25

DICPCG:  Solving for T, Initial residual = 9.5439916e-07, Final residual = 9.5439916e-07, No Iterations 0
DICPCG:  Solving for T, Initial residual = 9.5439916e-07, Final residual = 9.5439916e-07, No Iterations 0
DICPCG:  Solving for T, Initial residual = 9.5439916e-07, Final residual = 9.5439916e-07, No Iterations 0
ExecutionTime = 0.7 s  ClockTime = 1 s

Time = 4.3

DICPCG:  Solving for T, Initial residual = 9.5439916e-07, Final residual = 9.5439916e-07, No Iterations 0
DICPCG:  Solving for T, Initial residual = 9.5439916e-07, Final residual = 9.5439916e-07, No Iterations 0
DICPCG:  Solving for T, Initial residual = 9.5439916e-07, Final residual = 9.5439916e-07, No Iterations 0
ExecutionTime = 0.7 s  ClockTime = 1 s

Time = 4.35

DICPCG:  Solving for T, Initial residual = 9.5439916e-07, Final residual = 9.5439916e-07, No Iterations 0
DICPCG:  Solving for T, Initial residual = 9.5439916e-07, Final residual = 9.5439916e-07, No Iterations 0
DICPCG:  Solving for T, Initial residual = 9.5439916e-07, Final residual = 9.5439916e-07, No Iterations 0
ExecutionTime = 0.7 s  ClockTime = 1 s

Time = 4.4

DICPCG:  Solving for T, Initial residual = 9.5439916e-07, Final residual = 9.5439916e-07, No Iterations 0
DICPCG:  Solving for T, Initial residual = 9.5439916e-07, Final residual = 9.5439916e-07, No Iterations 0
DICPCG:  Solving for T, Initial residual = 9.5439916e-07, Final residual = 9.5439916e-07, No Iterations 0
ExecutionTime = 0.71 s  ClockTime = 1 s

Time = 4.45

DICPCG:  Solving for T, Initial residual = 9.5439916e-07, Final residual = 9.5439916e-07, No Iterations 0
DICPCG:  Solving for T, Initial residual = 9.5439916e-07, Final residual = 9.5439916e-07, No Iterations 0
DICPCG:  Solving for T, Initial residual = 9.5439916e-07, Final residual = 9.5439916e-07, No Iterations 0
ExecutionTime = 0.71 s  ClockTime = 1 s

Time = 4.5

DICPCG:  Solving for T, Initial residual = 9.5439916e-07, Final residual = 9.5439916e-07, No Iterations 0
DICPCG:  Solving for T, Initial residual = 9.5439916e-07, Final residual = 9.5439916e-07, No Iterations 0
DICPCG:  Solving for T, Initial residual = 9.5439916e-07, Final residual = 9.5439916e-07, No Iterations 0
ExecutionTime = 0.71 s  ClockTime = 1 s

Time = 4.55

DICPCG:  Solving for T, Initial residual = 9.5439916e-07, Final residual = 9.5439916e-07, No Iterations 0
DICPCG:  Solving for T, Initial residual = 9.5439916e-07, Final residual = 9.5439916e-07, No Iterations 0
DICPCG:  Solving for T, Initial residual = 9.5439916e-07, Final residual = 9.5439916e-07, No Iterations 0
ExecutionTime = 0.71 s  ClockTime = 1 s

Time = 4.6

DICPCG:  Solving for T, Initial residual = 9.5439916e-07, Final residual = 9.5439916e-07, No Iterations 0
DICPCG:  Solving for T, Initial residual = 9.5439916e-07, Final residual = 9.5439916e-07, No Iterations 0
DICPCG:  Solving for T, Initial residual = 9.5439916e-07, Final residual = 9.5439916e-07, No Iterations 0
ExecutionTime = 0.72 s  ClockTime = 1 s

Time = 4.65

DICPCG:  Solving for T, Initial residual = 9.5439916e-07, Final residual = 9.5439916e-07, No Iterations 0
DICPCG:  Solving for T, Initial residual = 9.5439916e-07, Final residual = 9.5439916e-07, No Iterations 0
DICPCG:  Solving for T, Initial residual = 9.5439916e-07, Final residual = 9.5439916e-07, No Iterations 0
ExecutionTime = 0.72 s  ClockTime = 1 s

Time = 4.7

DICPCG:  Solving for T, Initial residual = 9.5439916e-07, Final residual = 9.5439916e-07, No Iterations 0
DICPCG:  Solving for T, Initial residual = 9.5439916e-07, Final residual = 9.5439916e-07, No Iterations 0
DICPCG:  Solving for T, Initial residual = 9.5439916e-07, Final residual = 9.5439916e-07, No Iterations 0
ExecutionTime = 0.73 s  ClockTime = 1 s

Time = 4.75

DICPCG:  Solving for T, Initial residual = 9.5439916e-07, Final residual = 9.5439916e-07, No Iterations 0
DICPCG:  Solving for T, Initial residual = 9.5439916e-07, Final residual = 9.5439916e-07, No Iterations 0
DICPCG:  Solving for T, Initial residual = 9.5439916e-07, Final residual = 9.5439916e-07, No Iterations 0
ExecutionTime = 0.73 s  ClockTime = 1 s

Time = 4.8

DICPCG:  Solving for T, Initial residual = 9.5439916e-07, Final residual = 9.5439916e-07, No Iterations 0
DICPCG:  Solving for T, Initial residual = 9.5439916e-07, Final residual = 9.5439916e-07, No Iterations 0
DICPCG:  Solving for T, Initial residual = 9.5439916e-07, Final residual = 9.5439916e-07, No Iterations 0
ExecutionTime = 0.73 s  ClockTime = 1 s

Time = 4.85

DICPCG:  Solving for T, Initial residual = 9.5439916e-07, Final residual = 9.5439916e-07, No Iterations 0
DICPCG:  Solving for T, Initial residual = 9.5439916e-07, Final residual = 9.5439916e-07, No Iterations 0
DICPCG:  Solving for T, Initial residual = 9.5439916e-07, Final residual = 9.5439916e-07, No Iterations 0
ExecutionTime = 0.74 s  ClockTime = 1 s

Time = 4.9

DICPCG:  Solving for T, Initial residual = 9.5439916e-07, Final residual = 9.5439916e-07, No Iterations 0
DICPCG:  Solving for T, Initial residual = 9.5439916e-07, Final residual = 9.5439916e-07, No Iterations 0
DICPCG:  Solving for T, Initial residual = 9.5439916e-07, Final residual = 9.5439916e-07, No Iterations 0
ExecutionTime = 0.74 s  ClockTime = 1 s

Time = 4.95

DICPCG:  Solving for T, Initial residual = 9.5439916e-07, Final residual = 9.5439916e-07, No Iterations 0
DICPCG:  Solving for T, Initial residual = 9.5439916e-07, Final residual = 9.5439916e-07, No Iterations 0
DICPCG:  Solving for T, Initial residual = 9.5439916e-07, Final residual = 9.5439916e-07, No Iterations 0
ExecutionTime = 0.75 s  ClockTime = 1 s

Time = 5

DICPCG:  Solving for T, Initial residual = 9.5439916e-07, Final residual = 9.5439916e-07, No Iterations 0
DICPCG:  Solving for T, Initial residual = 9.5439916e-07, Final residual = 9.5439916e-07, No Iterations 0
DICPCG:  Solving for T, Initial residual = 9.5439916e-07, Final residual = 9.5439916e-07, No Iterations 0
ExecutionTime = 0.75 s  ClockTime = 1 s

Time = 5.05

DICPCG:  Solving for T, Initial residual = 9.5439916e-07, Final residual = 9.5439916e-07, No Iterations 0
DICPCG:  Solving for T, Initial residual = 9.5439916e-07, Final residual = 9.5439916e-07, No Iterations 0
DICPCG:  Solving for T, Initial residual = 9.5439916e-07, Final residual = 9.5439916e-07, No Iterations 0
ExecutionTime = 0.75 s  ClockTime = 1 s

Time = 5.1

DICPCG:  Solving for T, Initial residual = 9.5439916e-07, Final residual = 9.5439916e-07, No Iterations 0
DICPCG:  Solving for T, Initial residual = 9.5439916e-07, Final residual = 9.5439916e-07, No Iterations 0
DICPCG:  Solving for T, Initial residual = 9.5439916e-07, Final residual = 9.5439916e-07, No Iterations 0
ExecutionTime = 0.76 s  ClockTime = 1 s

Time = 5.15

DICPCG:  Solving for T, Initial residual = 9.5439916e-07, Final residual = 9.5439916e-07, No Iterations 0
DICPCG:  Solving for T, Initial residual = 9.5439916e-07, Final residual = 9.5439916e-07, No Iterations 0
DICPCG:  Solving for T, Initial residual = 9.5439916e-07, Final residual = 9.5439916e-07, No Iterations 0
ExecutionTime = 0.76 s  ClockTime = 1 s

Time = 5.2

DICPCG:  Solving for T, Initial residual = 9.5439916e-07, Final residual = 9.5439916e-07, No Iterations 0
DICPCG:  Solving for T, Initial residual = 9.5439916e-07, Final residual = 9.5439916e-07, No Iterations 0
DICPCG:  Solving for T, Initial residual = 9.5439916e-07, Final residual = 9.5439916e-07, No Iterations 0
ExecutionTime = 0.76 s  ClockTime = 1 s

Time = 5.25

DICPCG:  Solving for T, Initial residual = 9.5439916e-07, Final residual = 9.5439916e-07, No Iterations 0
DICPCG:  Solving for T, Initial residual = 9.5439916e-07, Final residual = 9.5439916e-07, No Iterations 0
DICPCG:  Solving for T, Initial residual = 9.5439916e-07, Final residual = 9.5439916e-07, No Iterations 0
ExecutionTime = 0.77 s  ClockTime = 1 s

Time = 5.3

DICPCG:  Solving for T, Initial residual = 9.5439916e-07, Final residual = 9.5439916e-07, No Iterations 0
DICPCG:  Solving for T, Initial residual = 9.5439916e-07, Final residual = 9.5439916e-07, No Iterations 0
DICPCG:  Solving for T, Initial residual = 9.5439916e-07, Final residual = 9.5439916e-07, No Iterations 0
ExecutionTime = 0.77 s  ClockTime = 1 s

Time = 5.35

DICPCG:  Solving for T, Initial residual = 9.5439916e-07, Final residual = 9.5439916e-07, No Iterations 0
DICPCG:  Solving for T, Initial residual = 9.5439916e-07, Final residual = 9.5439916e-07, No Iterations 0
DICPCG:  Solving for T, Initial residual = 9.5439916e-07, Final residual = 9.5439916e-07, No Iterations 0
ExecutionTime = 0.78 s  ClockTime = 1 s

Time = 5.4

DICPCG:  Solving for T, Initial residual = 9.5439916e-07, Final residual = 9.5439916e-07, No Iterations 0
DICPCG:  Solving for T, Initial residual = 9.5439916e-07, Final residual = 9.5439916e-07, No Iterations 0
DICPCG:  Solving for T, Initial residual = 9.5439916e-07, Final residual = 9.5439916e-07, No Iterations 0
ExecutionTime = 0.78 s  ClockTime = 1 s

Time = 5.45

DICPCG:  Solving for T, Initial residual = 9.5439916e-07, Final residual = 9.5439916e-07, No Iterations 0
DICPCG:  Solving for T, Initial residual = 9.5439916e-07, Final residual = 9.5439916e-07, No Iterations 0
DICPCG:  Solving for T, Initial residual = 9.5439916e-07, Final residual = 9.5439916e-07, No Iterations 0
ExecutionTime = 0.78 s  ClockTime = 1 s

Time = 5.5

DICPCG:  Solving for T, Initial residual = 9.5439916e-07, Final residual = 9.5439916e-07, No Iterations 0
DICPCG:  Solving for T, Initial residual = 9.5439916e-07, Final residual = 9.5439916e-07, No Iterations 0
DICPCG:  Solving for T, Initial residual = 9.5439916e-07, Final residual = 9.5439916e-07, No Iterations 0
ExecutionTime = 0.79 s  ClockTime = 1 s

Time = 5.55

DICPCG:  Solving for T, Initial residual = 9.5439916e-07, Final residual = 9.5439916e-07, No Iterations 0
DICPCG:  Solving for T, Initial residual = 9.5439916e-07, Final residual = 9.5439916e-07, No Iterations 0
DICPCG:  Solving for T, Initial residual = 9.5439916e-07, Final residual = 9.5439916e-07, No Iterations 0
ExecutionTime = 0.79 s  ClockTime = 1 s

Time = 5.6

DICPCG:  Solving for T, Initial residual = 9.5439916e-07, Final residual = 9.5439916e-07, No Iterations 0
DICPCG:  Solving for T, Initial residual = 9.5439916e-07, Final residual = 9.5439916e-07, No Iterations 0
DICPCG:  Solving for T, Initial residual = 9.5439916e-07, Final residual = 9.5439916e-07, No Iterations 0
ExecutionTime = 0.8 s  ClockTime = 1 s

Time = 5.65

DICPCG:  Solving for T, Initial residual = 9.5439916e-07, Final residual = 9.5439916e-07, No Iterations 0
DICPCG:  Solving for T, Initial residual = 9.5439916e-07, Final residual = 9.5439916e-07, No Iterations 0
DICPCG:  Solving for T, Initial residual = 9.5439916e-07, Final residual = 9.5439916e-07, No Iterations 0
ExecutionTime = 0.8 s  ClockTime = 1 s

Time = 5.7

DICPCG:  Solving for T, Initial residual = 9.5439916e-07, Final residual = 9.5439916e-07, No Iterations 0
DICPCG:  Solving for T, Initial residual = 9.5439916e-07, Final residual = 9.5439916e-07, No Iterations 0
DICPCG:  Solving for T, Initial residual = 9.5439916e-07, Final residual = 9.5439916e-07, No Iterations 0
ExecutionTime = 0.8 s  ClockTime = 1 s

Time = 5.75

DICPCG:  Solving for T, Initial residual = 9.5439916e-07, Final residual = 9.5439916e-07, No Iterations 0
DICPCG:  Solving for T, Initial residual = 9.5439916e-07, Final residual = 9.5439916e-07, No Iterations 0
DICPCG:  Solving for T, Initial residual = 9.5439916e-07, Final residual = 9.5439916e-07, No Iterations 0
ExecutionTime = 0.81 s  ClockTime = 1 s

Time = 5.8

DICPCG:  Solving for T, Initial residual = 9.5439916e-07, Final residual = 9.5439916e-07, No Iterations 0
DICPCG:  Solving for T, Initial residual = 9.5439916e-07, Final residual = 9.5439916e-07, No Iterations 0
DICPCG:  Solving for T, Initial residual = 9.5439916e-07, Final residual = 9.5439916e-07, No Iterations 0
ExecutionTime = 0.81 s  ClockTime = 1 s

Time = 5.85

DICPCG:  Solving for T, Initial residual = 9.5439916e-07, Final residual = 9.5439916e-07, No Iterations 0
DICPCG:  Solving for T, Initial residual = 9.5439916e-07, Final residual = 9.5439916e-07, No Iterations 0
DICPCG:  Solving for T, Initial residual = 9.5439916e-07, Final residual = 9.5439916e-07, No Iterations 0
ExecutionTime = 0.81 s  ClockTime = 1 s

Time = 5.9

DICPCG:  Solving for T, Initial residual = 9.5439916e-07, Final residual = 9.5439916e-07, No Iterations 0
DICPCG:  Solving for T, Initial residual = 9.5439916e-07, Final residual = 9.5439916e-07, No Iterations 0
DICPCG:  Solving for T, Initial residual = 9.5439916e-07, Final residual = 9.5439916e-07, No Iterations 0
ExecutionTime = 0.82 s  ClockTime = 1 s

Time = 5.95

DICPCG:  Solving for T, Initial residual = 9.5439916e-07, Final residual = 9.5439916e-07, No Iterations 0
DICPCG:  Solving for T, Initial residual = 9.5439916e-07, Final residual = 9.5439916e-07, No Iterations 0
DICPCG:  Solving for T, Initial residual = 9.5439916e-07, Final residual = 9.5439916e-07, No Iterations 0
ExecutionTime = 0.82 s  ClockTime = 1 s

Time = 6

DICPCG:  Solving for T, Initial residual = 9.5439916e-07, Final residual = 9.5439916e-07, No Iterations 0
DICPCG:  Solving for T, Initial residual = 9.5439916e-07, Final residual = 9.5439916e-07, No Iterations 0
DICPCG:  Solving for T, Initial residual = 9.5439916e-07, Final residual = 9.5439916e-07, No Iterations 0
ExecutionTime = 0.83 s  ClockTime = 1 s

Time = 6.05

DICPCG:  Solving for T, Initial residual = 9.5439916e-07, Final residual = 9.5439916e-07, No Iterations 0
DICPCG:  Solving for T, Initial residual = 9.5439916e-07, Final residual = 9.5439916e-07, No Iterations 0
DICPCG:  Solving for T, Initial residual = 9.5439916e-07, Final residual = 9.5439916e-07, No Iterations 0
ExecutionTime = 0.83 s  ClockTime = 1 s

Time = 6.1

DICPCG:  Solving for T, Initial residual = 9.5439916e-07, Final residual = 9.5439916e-07, No Iterations 0
DICPCG:  Solving for T, Initial residual = 9.5439916e-07, Final residual = 9.5439916e-07, No Iterations 0
DICPCG:  Solving for T, Initial residual = 9.5439916e-07, Final residual = 9.5439916e-07, No Iterations 0
ExecutionTime = 0.83 s  ClockTime = 1 s

Time = 6.15

DICPCG:  Solving for T, Initial residual = 9.5439916e-07, Final residual = 9.5439916e-07, No Iterations 0
DICPCG:  Solving for T, Initial residual = 9.5439916e-07, Final residual = 9.5439916e-07, No Iterations 0
DICPCG:  Solving for T, Initial residual = 9.5439916e-07, Final residual = 9.5439916e-07, No Iterations 0
ExecutionTime = 0.84 s  ClockTime = 1 s

Time = 6.2

DICPCG:  Solving for T, Initial residual = 9.5439916e-07, Final residual = 9.5439916e-07, No Iterations 0
DICPCG:  Solving for T, Initial residual = 9.5439916e-07, Final residual = 9.5439916e-07, No Iterations 0
DICPCG:  Solving for T, Initial residual = 9.5439916e-07, Final residual = 9.5439916e-07, No Iterations 0
ExecutionTime = 0.84 s  ClockTime = 1 s

Time = 6.25

DICPCG:  Solving for T, Initial residual = 9.5439916e-07, Final residual = 9.5439916e-07, No Iterations 0
DICPCG:  Solving for T, Initial residual = 9.5439916e-07, Final residual = 9.5439916e-07, No Iterations 0
DICPCG:  Solving for T, Initial residual = 9.5439916e-07, Final residual = 9.5439916e-07, No Iterations 0
ExecutionTime = 0.84 s  ClockTime = 1 s

Time = 6.3

DICPCG:  Solving for T, Initial residual = 9.5439916e-07, Final residual = 9.5439916e-07, No Iterations 0
DICPCG:  Solving for T, Initial residual = 9.5439916e-07, Final residual = 9.5439916e-07, No Iterations 0
DICPCG:  Solving for T, Initial residual = 9.5439916e-07, Final residual = 9.5439916e-07, No Iterations 0
ExecutionTime = 0.85 s  ClockTime = 1 s

Time = 6.35

DICPCG:  Solving for T, Initial residual = 9.5439916e-07, Final residual = 9.5439916e-07, No Iterations 0
DICPCG:  Solving for T, Initial residual = 9.5439916e-07, Final residual = 9.5439916e-07, No Iterations 0
DICPCG:  Solving for T, Initial residual = 9.5439916e-07, Final residual = 9.5439916e-07, No Iterations 0
ExecutionTime = 0.85 s  ClockTime = 1 s

Time = 6.4

DICPCG:  Solving for T, Initial residual = 9.5439916e-07, Final residual = 9.5439916e-07, No Iterations 0
DICPCG:  Solving for T, Initial residual = 9.5439916e-07, Final residual = 9.5439916e-07, No Iterations 0
DICPCG:  Solving for T, Initial residual = 9.5439916e-07, Final residual = 9.5439916e-07, No Iterations 0
ExecutionTime = 0.86 s  ClockTime = 1 s

Time = 6.45

DICPCG:  Solving for T, Initial residual = 9.5439916e-07, Final residual = 9.5439916e-07, No Iterations 0
DICPCG:  Solving for T, Initial residual = 9.5439916e-07, Final residual = 9.5439916e-07, No Iterations 0
DICPCG:  Solving for T, Initial residual = 9.5439916e-07, Final residual = 9.5439916e-07, No Iterations 0
ExecutionTime = 0.86 s  ClockTime = 1 s

Time = 6.5

DICPCG:  Solving for T, Initial residual = 9.5439916e-07, Final residual = 9.5439916e-07, No Iterations 0
DICPCG:  Solving for T, Initial residual = 9.5439916e-07, Final residual = 9.5439916e-07, No Iterations 0
DICPCG:  Solving for T, Initial residual = 9.5439916e-07, Final residual = 9.5439916e-07, No Iterations 0
ExecutionTime = 0.86 s  ClockTime = 1 s

Time = 6.55

DICPCG:  Solving for T, Initial residual = 9.5439916e-07, Final residual = 9.5439916e-07, No Iterations 0
DICPCG:  Solving for T, Initial residual = 9.5439916e-07, Final residual = 9.5439916e-07, No Iterations 0
DICPCG:  Solving for T, Initial residual = 9.5439916e-07, Final residual = 9.5439916e-07, No Iterations 0
ExecutionTime = 0.87 s  ClockTime = 1 s

Time = 6.6

DICPCG:  Solving for T, Initial residual = 9.5439916e-07, Final residual = 9.5439916e-07, No Iterations 0
DICPCG:  Solving for T, Initial residual = 9.5439916e-07, Final residual = 9.5439916e-07, No Iterations 0
DICPCG:  Solving for T, Initial residual = 9.5439916e-07, Final residual = 9.5439916e-07, No Iterations 0
ExecutionTime = 0.87 s  ClockTime = 1 s

Time = 6.65

DICPCG:  Solving for T, Initial residual = 9.5439916e-07, Final residual = 9.5439916e-07, No Iterations 0
DICPCG:  Solving for T, Initial residual = 9.5439916e-07, Final residual = 9.5439916e-07, No Iterations 0
DICPCG:  Solving for T, Initial residual = 9.5439916e-07, Final residual = 9.5439916e-07, No Iterations 0
ExecutionTime = 0.87 s  ClockTime = 1 s

Time = 6.7

DICPCG:  Solving for T, Initial residual = 9.5439916e-07, Final residual = 9.5439916e-07, No Iterations 0
DICPCG:  Solving for T, Initial residual = 9.5439916e-07, Final residual = 9.5439916e-07, No Iterations 0
DICPCG:  Solving for T, Initial residual = 9.5439916e-07, Final residual = 9.5439916e-07, No Iterations 0
ExecutionTime = 0.88 s  ClockTime = 1 s

Time = 6.75

DICPCG:  Solving for T, Initial residual = 9.5439916e-07, Final residual = 9.5439916e-07, No Iterations 0
DICPCG:  Solving for T, Initial residual = 9.5439916e-07, Final residual = 9.5439916e-07, No Iterations 0
DICPCG:  Solving for T, Initial residual = 9.5439916e-07, Final residual = 9.5439916e-07, No Iterations 0
ExecutionTime = 0.88 s  ClockTime = 1 s

Time = 6.8

DICPCG:  Solving for T, Initial residual = 9.5439916e-07, Final residual = 9.5439916e-07, No Iterations 0
DICPCG:  Solving for T, Initial residual = 9.5439916e-07, Final residual = 9.5439916e-07, No Iterations 0
DICPCG:  Solving for T, Initial residual = 9.5439916e-07, Final residual = 9.5439916e-07, No Iterations 0
ExecutionTime = 0.89 s  ClockTime = 1 s

Time = 6.85

DICPCG:  Solving for T, Initial residual = 9.5439916e-07, Final residual = 9.5439916e-07, No Iterations 0
DICPCG:  Solving for T, Initial residual = 9.5439916e-07, Final residual = 9.5439916e-07, No Iterations 0
DICPCG:  Solving for T, Initial residual = 9.5439916e-07, Final residual = 9.5439916e-07, No Iterations 0
ExecutionTime = 0.89 s  ClockTime = 1 s

Time = 6.9

DICPCG:  Solving for T, Initial residual = 9.5439916e-07, Final residual = 9.5439916e-07, No Iterations 0
DICPCG:  Solving for T, Initial residual = 9.5439916e-07, Final residual = 9.5439916e-07, No Iterations 0
DICPCG:  Solving for T, Initial residual = 9.5439916e-07, Final residual = 9.5439916e-07, No Iterations 0
ExecutionTime = 0.89 s  ClockTime = 1 s

Time = 6.95

DICPCG:  Solving for T, Initial residual = 9.5439916e-07, Final residual = 9.5439916e-07, No Iterations 0
DICPCG:  Solving for T, Initial residual = 9.5439916e-07, Final residual = 9.5439916e-07, No Iterations 0
DICPCG:  Solving for T, Initial residual = 9.5439916e-07, Final residual = 9.5439916e-07, No Iterations 0
ExecutionTime = 0.9 s  ClockTime = 1 s

Time = 7

DICPCG:  Solving for T, Initial residual = 9.5439916e-07, Final residual = 9.5439916e-07, No Iterations 0
DICPCG:  Solving for T, Initial residual = 9.5439916e-07, Final residual = 9.5439916e-07, No Iterations 0
DICPCG:  Solving for T, Initial residual = 9.5439916e-07, Final residual = 9.5439916e-07, No Iterations 0
ExecutionTime = 0.9 s  ClockTime = 1 s

Time = 7.05

DICPCG:  Solving for T, Initial residual = 9.5439916e-07, Final residual = 9.5439916e-07, No Iterations 0
DICPCG:  Solving for T, Initial residual = 9.5439916e-07, Final residual = 9.5439916e-07, No Iterations 0
DICPCG:  Solving for T, Initial residual = 9.5439916e-07, Final residual = 9.5439916e-07, No Iterations 0
ExecutionTime = 0.9 s  ClockTime = 1 s

Time = 7.1

DICPCG:  Solving for T, Initial residual = 9.5439916e-07, Final residual = 9.5439916e-07, No Iterations 0
DICPCG:  Solving for T, Initial residual = 9.5439916e-07, Final residual = 9.5439916e-07, No Iterations 0
DICPCG:  Solving for T, Initial residual = 9.5439916e-07, Final residual = 9.5439916e-07, No Iterations 0
ExecutionTime = 0.91 s  ClockTime = 1 s

Time = 7.15

DICPCG:  Solving for T, Initial residual = 9.5439916e-07, Final residual = 9.5439916e-07, No Iterations 0
DICPCG:  Solving for T, Initial residual = 9.5439916e-07, Final residual = 9.5439916e-07, No Iterations 0
DICPCG:  Solving for T, Initial residual = 9.5439916e-07, Final residual = 9.5439916e-07, No Iterations 0
ExecutionTime = 0.91 s  ClockTime = 1 s

Time = 7.2

DICPCG:  Solving for T, Initial residual = 9.5439916e-07, Final residual = 9.5439916e-07, No Iterations 0
DICPCG:  Solving for T, Initial residual = 9.5439916e-07, Final residual = 9.5439916e-07, No Iterations 0
DICPCG:  Solving for T, Initial residual = 9.5439916e-07, Final residual = 9.5439916e-07, No Iterations 0
ExecutionTime = 0.92 s  ClockTime = 1 s

Time = 7.25

DICPCG:  Solving for T, Initial residual = 9.5439916e-07, Final residual = 9.5439916e-07, No Iterations 0
DICPCG:  Solving for T, Initial residual = 9.5439916e-07, Final residual = 9.5439916e-07, No Iterations 0
DICPCG:  Solving for T, Initial residual = 9.5439916e-07, Final residual = 9.5439916e-07, No Iterations 0
ExecutionTime = 0.92 s  ClockTime = 1 s

Time = 7.3

DICPCG:  Solving for T, Initial residual = 9.5439916e-07, Final residual = 9.5439916e-07, No Iterations 0
DICPCG:  Solving for T, Initial residual = 9.5439916e-07, Final residual = 9.5439916e-07, No Iterations 0
DICPCG:  Solving for T, Initial residual = 9.5439916e-07, Final residual = 9.5439916e-07, No Iterations 0
ExecutionTime = 0.92 s  ClockTime = 1 s

Time = 7.35

DICPCG:  Solving for T, Initial residual = 9.5439916e-07, Final residual = 9.5439916e-07, No Iterations 0
DICPCG:  Solving for T, Initial residual = 9.5439916e-07, Final residual = 9.5439916e-07, No Iterations 0
DICPCG:  Solving for T, Initial residual = 9.5439916e-07, Final residual = 9.5439916e-07, No Iterations 0
ExecutionTime = 0.93 s  ClockTime = 1 s

Time = 7.4

DICPCG:  Solving for T, Initial residual = 9.5439916e-07, Final residual = 9.5439916e-07, No Iterations 0
DICPCG:  Solving for T, Initial residual = 9.5439916e-07, Final residual = 9.5439916e-07, No Iterations 0
DICPCG:  Solving for T, Initial residual = 9.5439916e-07, Final residual = 9.5439916e-07, No Iterations 0
ExecutionTime = 0.93 s  ClockTime = 1 s

Time = 7.45

DICPCG:  Solving for T, Initial residual = 9.5439916e-07, Final residual = 9.5439916e-07, No Iterations 0
DICPCG:  Solving for T, Initial residual = 9.5439916e-07, Final residual = 9.5439916e-07, No Iterations 0
DICPCG:  Solving for T, Initial residual = 9.5439916e-07, Final residual = 9.5439916e-07, No Iterations 0
ExecutionTime = 0.93 s  ClockTime = 1 s

Time = 7.5

DICPCG:  Solving for T, Initial residual = 9.5439916e-07, Final residual = 9.5439916e-07, No Iterations 0
DICPCG:  Solving for T, Initial residual = 9.5439916e-07, Final residual = 9.5439916e-07, No Iterations 0
DICPCG:  Solving for T, Initial residual = 9.5439916e-07, Final residual = 9.5439916e-07, No Iterations 0
ExecutionTime = 0.94 s  ClockTime = 1 s

Time = 7.55

DICPCG:  Solving for T, Initial residual = 9.5439916e-07, Final residual = 9.5439916e-07, No Iterations 0
DICPCG:  Solving for T, Initial residual = 9.5439916e-07, Final residual = 9.5439916e-07, No Iterations 0
DICPCG:  Solving for T, Initial residual = 9.5439916e-07, Final residual = 9.5439916e-07, No Iterations 0
ExecutionTime = 0.94 s  ClockTime = 1 s

Time = 7.6

DICPCG:  Solving for T, Initial residual = 9.5439916e-07, Final residual = 9.5439916e-07, No Iterations 0
DICPCG:  Solving for T, Initial residual = 9.5439916e-07, Final residual = 9.5439916e-07, No Iterations 0
DICPCG:  Solving for T, Initial residual = 9.5439916e-07, Final residual = 9.5439916e-07, No Iterations 0
ExecutionTime = 0.95 s  ClockTime = 1 s

Time = 7.65

DICPCG:  Solving for T, Initial residual = 9.5439916e-07, Final residual = 9.5439916e-07, No Iterations 0
DICPCG:  Solving for T, Initial residual = 9.5439916e-07, Final residual = 9.5439916e-07, No Iterations 0
DICPCG:  Solving for T, Initial residual = 9.5439916e-07, Final residual = 9.5439916e-07, No Iterations 0
ExecutionTime = 0.95 s  ClockTime = 1 s

Time = 7.7

DICPCG:  Solving for T, Initial residual = 9.5439916e-07, Final residual = 9.5439916e-07, No Iterations 0
DICPCG:  Solving for T, Initial residual = 9.5439916e-07, Final residual = 9.5439916e-07, No Iterations 0
DICPCG:  Solving for T, Initial residual = 9.5439916e-07, Final residual = 9.5439916e-07, No Iterations 0
ExecutionTime = 0.95 s  ClockTime = 1 s

Time = 7.75

DICPCG:  Solving for T, Initial residual = 9.5439916e-07, Final residual = 9.5439916e-07, No Iterations 0
DICPCG:  Solving for T, Initial residual = 9.5439916e-07, Final residual = 9.5439916e-07, No Iterations 0
DICPCG:  Solving for T, Initial residual = 9.5439916e-07, Final residual = 9.5439916e-07, No Iterations 0
ExecutionTime = 0.96 s  ClockTime = 1 s

Time = 7.8

DICPCG:  Solving for T, Initial residual = 9.5439916e-07, Final residual = 9.5439916e-07, No Iterations 0
DICPCG:  Solving for T, Initial residual = 9.5439916e-07, Final residual = 9.5439916e-07, No Iterations 0
DICPCG:  Solving for T, Initial residual = 9.5439916e-07, Final residual = 9.5439916e-07, No Iterations 0
ExecutionTime = 0.96 s  ClockTime = 1 s

Time = 7.85

DICPCG:  Solving for T, Initial residual = 9.5439916e-07, Final residual = 9.5439916e-07, No Iterations 0
DICPCG:  Solving for T, Initial residual = 9.5439916e-07, Final residual = 9.5439916e-07, No Iterations 0
DICPCG:  Solving for T, Initial residual = 9.5439916e-07, Final residual = 9.5439916e-07, No Iterations 0
ExecutionTime = 0.96 s  ClockTime = 1 s

Time = 7.9

DICPCG:  Solving for T, Initial residual = 9.5439916e-07, Final residual = 9.5439916e-07, No Iterations 0
DICPCG:  Solving for T, Initial residual = 9.5439916e-07, Final residual = 9.5439916e-07, No Iterations 0
DICPCG:  Solving for T, Initial residual = 9.5439916e-07, Final residual = 9.5439916e-07, No Iterations 0
ExecutionTime = 0.97 s  ClockTime = 1 s

Time = 7.95

DICPCG:  Solving for T, Initial residual = 9.5439916e-07, Final residual = 9.5439916e-07, No Iterations 0
DICPCG:  Solving for T, Initial residual = 9.5439916e-07, Final residual = 9.5439916e-07, No Iterations 0
DICPCG:  Solving for T, Initial residual = 9.5439916e-07, Final residual = 9.5439916e-07, No Iterations 0
ExecutionTime = 0.97 s  ClockTime = 1 s

Time = 8

DICPCG:  Solving for T, Initial residual = 9.5439916e-07, Final residual = 9.5439916e-07, No Iterations 0
DICPCG:  Solving for T, Initial residual = 9.5439916e-07, Final residual = 9.5439916e-07, No Iterations 0
DICPCG:  Solving for T, Initial residual = 9.5439916e-07, Final residual = 9.5439916e-07, No Iterations 0
ExecutionTime = 0.98 s  ClockTime = 1 s

Time = 8.05

DICPCG:  Solving for T, Initial residual = 9.5439916e-07, Final residual = 9.5439916e-07, No Iterations 0
DICPCG:  Solving for T, Initial residual = 9.5439916e-07, Final residual = 9.5439916e-07, No Iterations 0
DICPCG:  Solving for T, Initial residual = 9.5439916e-07, Final residual = 9.5439916e-07, No Iterations 0
ExecutionTime = 0.98 s  ClockTime = 1 s

Time = 8.1

DICPCG:  Solving for T, Initial residual = 9.5439916e-07, Final residual = 9.5439916e-07, No Iterations 0
DICPCG:  Solving for T, Initial residual = 9.5439916e-07, Final residual = 9.5439916e-07, No Iterations 0
DICPCG:  Solving for T, Initial residual = 9.5439916e-07, Final residual = 9.5439916e-07, No Iterations 0
ExecutionTime = 0.98 s  ClockTime = 1 s

Time = 8.15

DICPCG:  Solving for T, Initial residual = 9.5439916e-07, Final residual = 9.5439916e-07, No Iterations 0
DICPCG:  Solving for T, Initial residual = 9.5439916e-07, Final residual = 9.5439916e-07, No Iterations 0
DICPCG:  Solving for T, Initial residual = 9.5439916e-07, Final residual = 9.5439916e-07, No Iterations 0
ExecutionTime = 0.99 s  ClockTime = 1 s

Time = 8.2

DICPCG:  Solving for T, Initial residual = 9.5439916e-07, Final residual = 9.5439916e-07, No Iterations 0
DICPCG:  Solving for T, Initial residual = 9.5439916e-07, Final residual = 9.5439916e-07, No Iterations 0
DICPCG:  Solving for T, Initial residual = 9.5439916e-07, Final residual = 9.5439916e-07, No Iterations 0
ExecutionTime = 0.99 s  ClockTime = 1 s

Time = 8.25

DICPCG:  Solving for T, Initial residual = 9.5439916e-07, Final residual = 9.5439916e-07, No Iterations 0
DICPCG:  Solving for T, Initial residual = 9.5439916e-07, Final residual = 9.5439916e-07, No Iterations 0
DICPCG:  Solving for T, Initial residual = 9.5439916e-07, Final residual = 9.5439916e-07, No Iterations 0
ExecutionTime = 0.99 s  ClockTime = 1 s

Time = 8.3

DICPCG:  Solving for T, Initial residual = 9.5439916e-07, Final residual = 9.5439916e-07, No Iterations 0
DICPCG:  Solving for T, Initial residual = 9.5439916e-07, Final residual = 9.5439916e-07, No Iterations 0
DICPCG:  Solving for T, Initial residual = 9.5439916e-07, Final residual = 9.5439916e-07, No Iterations 0
ExecutionTime = 1 s  ClockTime = 1 s

Time = 8.35

DICPCG:  Solving for T, Initial residual = 9.5439916e-07, Final residual = 9.5439916e-07, No Iterations 0
DICPCG:  Solving for T, Initial residual = 9.5439916e-07, Final residual = 9.5439916e-07, No Iterations 0
DICPCG:  Solving for T, Initial residual = 9.5439916e-07, Final residual = 9.5439916e-07, No Iterations 0
ExecutionTime = 1 s  ClockTime = 1 s

Time = 8.4

DICPCG:  Solving for T, Initial residual = 9.5439916e-07, Final residual = 9.5439916e-07, No Iterations 0
DICPCG:  Solving for T, Initial residual = 9.5439916e-07, Final residual = 9.5439916e-07, No Iterations 0
DICPCG:  Solving for T, Initial residual = 9.5439916e-07, Final residual = 9.5439916e-07, No Iterations 0
ExecutionTime = 1.01 s  ClockTime = 1 s

Time = 8.45

DICPCG:  Solving for T, Initial residual = 9.5439916e-07, Final residual = 9.5439916e-07, No Iterations 0
DICPCG:  Solving for T, Initial residual = 9.5439916e-07, Final residual = 9.5439916e-07, No Iterations 0
DICPCG:  Solving for T, Initial residual = 9.5439916e-07, Final residual = 9.5439916e-07, No Iterations 0
ExecutionTime = 1.01 s  ClockTime = 1 s

Time = 8.5

DICPCG:  Solving for T, Initial residual = 9.5439916e-07, Final residual = 9.5439916e-07, No Iterations 0
DICPCG:  Solving for T, Initial residual = 9.5439916e-07, Final residual = 9.5439916e-07, No Iterations 0
DICPCG:  Solving for T, Initial residual = 9.5439916e-07, Final residual = 9.5439916e-07, No Iterations 0
ExecutionTime = 1.01 s  ClockTime = 1 s

Time = 8.55

DICPCG:  Solving for T, Initial residual = 9.5439916e-07, Final residual = 9.5439916e-07, No Iterations 0
DICPCG:  Solving for T, Initial residual = 9.5439916e-07, Final residual = 9.5439916e-07, No Iterations 0
DICPCG:  Solving for T, Initial residual = 9.5439916e-07, Final residual = 9.5439916e-07, No Iterations 0
ExecutionTime = 1.01 s  ClockTime = 1 s

Time = 8.6

DICPCG:  Solving for T, Initial residual = 9.5439916e-07, Final residual = 9.5439916e-07, No Iterations 0
DICPCG:  Solving for T, Initial residual = 9.5439916e-07, Final residual = 9.5439916e-07, No Iterations 0
DICPCG:  Solving for T, Initial residual = 9.5439916e-07, Final residual = 9.5439916e-07, No Iterations 0
ExecutionTime = 1.02 s  ClockTime = 1 s

Time = 8.65

DICPCG:  Solving for T, Initial residual = 9.5439916e-07, Final residual = 9.5439916e-07, No Iterations 0
DICPCG:  Solving for T, Initial residual = 9.5439916e-07, Final residual = 9.5439916e-07, No Iterations 0
DICPCG:  Solving for T, Initial residual = 9.5439916e-07, Final residual = 9.5439916e-07, No Iterations 0
ExecutionTime = 1.02 s  ClockTime = 1 s

Time = 8.7

DICPCG:  Solving for T, Initial residual = 9.5439916e-07, Final residual = 9.5439916e-07, No Iterations 0
DICPCG:  Solving for T, Initial residual = 9.5439916e-07, Final residual = 9.5439916e-07, No Iterations 0
DICPCG:  Solving for T, Initial residual = 9.5439916e-07, Final residual = 9.5439916e-07, No Iterations 0
ExecutionTime = 1.02 s  ClockTime = 1 s

Time = 8.75

DICPCG:  Solving for T, Initial residual = 9.5439916e-07, Final residual = 9.5439916e-07, No Iterations 0
DICPCG:  Solving for T, Initial residual = 9.5439916e-07, Final residual = 9.5439916e-07, No Iterations 0
DICPCG:  Solving for T, Initial residual = 9.5439916e-07, Final residual = 9.5439916e-07, No Iterations 0
ExecutionTime = 1.03 s  ClockTime = 1 s

Time = 8.8

DICPCG:  Solving for T, Initial residual = 9.5439916e-07, Final residual = 9.5439916e-07, No Iterations 0
DICPCG:  Solving for T, Initial residual = 9.5439916e-07, Final residual = 9.5439916e-07, No Iterations 0
DICPCG:  Solving for T, Initial residual = 9.5439916e-07, Final residual = 9.5439916e-07, No Iterations 0
ExecutionTime = 1.03 s  ClockTime = 1 s

Time = 8.85

DICPCG:  Solving for T, Initial residual = 9.5439916e-07, Final residual = 9.5439916e-07, No Iterations 0
DICPCG:  Solving for T, Initial residual = 9.5439916e-07, Final residual = 9.5439916e-07, No Iterations 0
DICPCG:  Solving for T, Initial residual = 9.5439916e-07, Final residual = 9.5439916e-07, No Iterations 0
ExecutionTime = 1.04 s  ClockTime = 1 s

Time = 8.9

DICPCG:  Solving for T, Initial residual = 9.5439916e-07, Final residual = 9.5439916e-07, No Iterations 0
DICPCG:  Solving for T, Initial residual = 9.5439916e-07, Final residual = 9.5439916e-07, No Iterations 0
DICPCG:  Solving for T, Initial residual = 9.5439916e-07, Final residual = 9.5439916e-07, No Iterations 0
ExecutionTime = 1.04 s  ClockTime = 1 s

Time = 8.95

DICPCG:  Solving for T, Initial residual = 9.5439916e-07, Final residual = 9.5439916e-07, No Iterations 0
DICPCG:  Solving for T, Initial residual = 9.5439916e-07, Final residual = 9.5439916e-07, No Iterations 0
DICPCG:  Solving for T, Initial residual = 9.5439916e-07, Final residual = 9.5439916e-07, No Iterations 0
ExecutionTime = 1.05 s  ClockTime = 1 s

Time = 9

DICPCG:  Solving for T, Initial residual = 9.5439916e-07, Final residual = 9.5439916e-07, No Iterations 0
DICPCG:  Solving for T, Initial residual = 9.5439916e-07, Final residual = 9.5439916e-07, No Iterations 0
DICPCG:  Solving for T, Initial residual = 9.5439916e-07, Final residual = 9.5439916e-07, No Iterations 0
ExecutionTime = 1.05 s  ClockTime = 1 s

Time = 9.05

DICPCG:  Solving for T, Initial residual = 9.5439916e-07, Final residual = 9.5439916e-07, No Iterations 0
DICPCG:  Solving for T, Initial residual = 9.5439916e-07, Final residual = 9.5439916e-07, No Iterations 0
DICPCG:  Solving for T, Initial residual = 9.5439916e-07, Final residual = 9.5439916e-07, No Iterations 0
ExecutionTime = 1.06 s  ClockTime = 1 s

Time = 9.1

DICPCG:  Solving for T, Initial residual = 9.5439916e-07, Final residual = 9.5439916e-07, No Iterations 0
DICPCG:  Solving for T, Initial residual = 9.5439916e-07, Final residual = 9.5439916e-07, No Iterations 0
DICPCG:  Solving for T, Initial residual = 9.5439916e-07, Final residual = 9.5439916e-07, No Iterations 0
ExecutionTime = 1.06 s  ClockTime = 1 s

Time = 9.15

DICPCG:  Solving for T, Initial residual = 9.5439916e-07, Final residual = 9.5439916e-07, No Iterations 0
DICPCG:  Solving for T, Initial residual = 9.5439916e-07, Final residual = 9.5439916e-07, No Iterations 0
DICPCG:  Solving for T, Initial residual = 9.5439916e-07, Final residual = 9.5439916e-07, No Iterations 0
ExecutionTime = 1.06 s  ClockTime = 1 s

Time = 9.2

DICPCG:  Solving for T, Initial residual = 9.5439916e-07, Final residual = 9.5439916e-07, No Iterations 0
DICPCG:  Solving for T, Initial residual = 9.5439916e-07, Final residual = 9.5439916e-07, No Iterations 0
DICPCG:  Solving for T, Initial residual = 9.5439916e-07, Final residual = 9.5439916e-07, No Iterations 0
ExecutionTime = 1.07 s  ClockTime = 1 s

Time = 9.25

DICPCG:  Solving for T, Initial residual = 9.5439916e-07, Final residual = 9.5439916e-07, No Iterations 0
DICPCG:  Solving for T, Initial residual = 9.5439916e-07, Final residual = 9.5439916e-07, No Iterations 0
DICPCG:  Solving for T, Initial residual = 9.5439916e-07, Final residual = 9.5439916e-07, No Iterations 0
ExecutionTime = 1.07 s  ClockTime = 1 s

Time = 9.3

DICPCG:  Solving for T, Initial residual = 9.5439916e-07, Final residual = 9.5439916e-07, No Iterations 0
DICPCG:  Solving for T, Initial residual = 9.5439916e-07, Final residual = 9.5439916e-07, No Iterations 0
DICPCG:  Solving for T, Initial residual = 9.5439916e-07, Final residual = 9.5439916e-07, No Iterations 0
ExecutionTime = 1.07 s  ClockTime = 1 s

Time = 9.35

DICPCG:  Solving for T, Initial residual = 9.5439916e-07, Final residual = 9.5439916e-07, No Iterations 0
DICPCG:  Solving for T, Initial residual = 9.5439916e-07, Final residual = 9.5439916e-07, No Iterations 0
DICPCG:  Solving for T, Initial residual = 9.5439916e-07, Final residual = 9.5439916e-07, No Iterations 0
ExecutionTime = 1.08 s  ClockTime = 1 s

Time = 9.4

DICPCG:  Solving for T, Initial residual = 9.5439916e-07, Final residual = 9.5439916e-07, No Iterations 0
DICPCG:  Solving for T, Initial residual = 9.5439916e-07, Final residual = 9.5439916e-07, No Iterations 0
DICPCG:  Solving for T, Initial residual = 9.5439916e-07, Final residual = 9.5439916e-07, No Iterations 0
ExecutionTime = 1.08 s  ClockTime = 1 s

Time = 9.45

DICPCG:  Solving for T, Initial residual = 9.5439916e-07, Final residual = 9.5439916e-07, No Iterations 0
DICPCG:  Solving for T, Initial residual = 9.5439916e-07, Final residual = 9.5439916e-07, No Iterations 0
DICPCG:  Solving for T, Initial residual = 9.5439916e-07, Final residual = 9.5439916e-07, No Iterations 0
ExecutionTime = 1.09 s  ClockTime = 1 s

Time = 9.5

DICPCG:  Solving for T, Initial residual = 9.5439916e-07, Final residual = 9.5439916e-07, No Iterations 0
DICPCG:  Solving for T, Initial residual = 9.5439916e-07, Final residual = 9.5439916e-07, No Iterations 0
DICPCG:  Solving for T, Initial residual = 9.5439916e-07, Final residual = 9.5439916e-07, No Iterations 0
ExecutionTime = 1.09 s  ClockTime = 1 s

Time = 9.55

DICPCG:  Solving for T, Initial residual = 9.5439916e-07, Final residual = 9.5439916e-07, No Iterations 0
DICPCG:  Solving for T, Initial residual = 9.5439916e-07, Final residual = 9.5439916e-07, No Iterations 0
DICPCG:  Solving for T, Initial residual = 9.5439916e-07, Final residual = 9.5439916e-07, No Iterations 0
ExecutionTime = 1.09 s  ClockTime = 1 s

Time = 9.6

DICPCG:  Solving for T, Initial residual = 9.5439916e-07, Final residual = 9.5439916e-07, No Iterations 0
DICPCG:  Solving for T, Initial residual = 9.5439916e-07, Final residual = 9.5439916e-07, No Iterations 0
DICPCG:  Solving for T, Initial residual = 9.5439916e-07, Final residual = 9.5439916e-07, No Iterations 0
ExecutionTime = 1.1 s  ClockTime = 1 s

Time = 9.65

DICPCG:  Solving for T, Initial residual = 9.5439916e-07, Final residual = 9.5439916e-07, No Iterations 0
DICPCG:  Solving for T, Initial residual = 9.5439916e-07, Final residual = 9.5439916e-07, No Iterations 0
DICPCG:  Solving for T, Initial residual = 9.5439916e-07, Final residual = 9.5439916e-07, No Iterations 0
ExecutionTime = 1.1 s  ClockTime = 1 s

Time = 9.7

DICPCG:  Solving for T, Initial residual = 9.5439916e-07, Final residual = 9.5439916e-07, No Iterations 0
DICPCG:  Solving for T, Initial residual = 9.5439916e-07, Final residual = 9.5439916e-07, No Iterations 0
DICPCG:  Solving for T, Initial residual = 9.5439916e-07, Final residual = 9.5439916e-07, No Iterations 0
ExecutionTime = 1.1 s  ClockTime = 1 s

Time = 9.75

DICPCG:  Solving for T, Initial residual = 9.5439916e-07, Final residual = 9.5439916e-07, No Iterations 0
DICPCG:  Solving for T, Initial residual = 9.5439916e-07, Final residual = 9.5439916e-07, No Iterations 0
DICPCG:  Solving for T, Initial residual = 9.5439916e-07, Final residual = 9.5439916e-07, No Iterations 0
ExecutionTime = 1.11 s  ClockTime = 1 s

Time = 9.8

DICPCG:  Solving for T, Initial residual = 9.5439916e-07, Final residual = 9.5439916e-07, No Iterations 0
DICPCG:  Solving for T, Initial residual = 9.5439916e-07, Final residual = 9.5439916e-07, No Iterations 0
DICPCG:  Solving for T, Initial residual = 9.5439916e-07, Final residual = 9.5439916e-07, No Iterations 0
ExecutionTime = 1.11 s  ClockTime = 1 s

Time = 9.85

DICPCG:  Solving for T, Initial residual = 9.5439916e-07, Final residual = 9.5439916e-07, No Iterations 0
DICPCG:  Solving for T, Initial residual = 9.5439916e-07, Final residual = 9.5439916e-07, No Iterations 0
DICPCG:  Solving for T, Initial residual = 9.5439916e-07, Final residual = 9.5439916e-07, No Iterations 0
ExecutionTime = 1.12 s  ClockTime = 1 s

Time = 9.9

DICPCG:  Solving for T, Initial residual = 9.5439916e-07, Final residual = 9.5439916e-07, No Iterations 0
DICPCG:  Solving for T, Initial residual = 9.5439916e-07, Final residual = 9.5439916e-07, No Iterations 0
DICPCG:  Solving for T, Initial residual = 9.5439916e-07, Final residual = 9.5439916e-07, No Iterations 0
ExecutionTime = 1.12 s  ClockTime = 1 s

Time = 9.95

DICPCG:  Solving for T, Initial residual = 9.5439916e-07, Final residual = 9.5439916e-07, No Iterations 0
DICPCG:  Solving for T, Initial residual = 9.5439916e-07, Final residual = 9.5439916e-07, No Iterations 0
DICPCG:  Solving for T, Initial residual = 9.5439916e-07, Final residual = 9.5439916e-07, No Iterations 0
ExecutionTime = 1.12 s  ClockTime = 1 s

Time = 10

DICPCG:  Solving for T, Initial residual = 9.5439916e-07, Final residual = 9.5439916e-07, No Iterations 0
DICPCG:  Solving for T, Initial residual = 9.5439916e-07, Final residual = 9.5439916e-07, No Iterations 0
DICPCG:  Solving for T, Initial residual = 9.5439916e-07, Final residual = 9.5439916e-07, No Iterations 0
ExecutionTime = 1.2 s  ClockTime = 1 s

Time = 10.05

DICPCG:  Solving for T, Initial residual = 9.5439916e-07, Final residual = 9.5439916e-07, No Iterations 0
DICPCG:  Solving for T, Initial residual = 9.5439916e-07, Final residual = 9.5439916e-07, No Iterations 0
DICPCG:  Solving for T, Initial residual = 9.5439916e-07, Final residual = 9.5439916e-07, No Iterations 0
ExecutionTime = 1.2 s  ClockTime = 1 s

Time = 10.1

DICPCG:  Solving for T, Initial residual = 9.5439916e-07, Final residual = 9.5439916e-07, No Iterations 0
DICPCG:  Solving for T, Initial residual = 9.5439916e-07, Final residual = 9.5439916e-07, No Iterations 0
DICPCG:  Solving for T, Initial residual = 9.5439916e-07, Final residual = 9.5439916e-07, No Iterations 0
ExecutionTime = 1.2 s  ClockTime = 1 s

Time = 10.15

DICPCG:  Solving for T, Initial residual = 9.5439916e-07, Final residual = 9.5439916e-07, No Iterations 0
DICPCG:  Solving for T, Initial residual = 9.5439916e-07, Final residual = 9.5439916e-07, No Iterations 0
DICPCG:  Solving for T, Initial residual = 9.5439916e-07, Final residual = 9.5439916e-07, No Iterations 0
ExecutionTime = 1.21 s  ClockTime = 1 s

Time = 10.2

DICPCG:  Solving for T, Initial residual = 9.5439916e-07, Final residual = 9.5439916e-07, No Iterations 0
DICPCG:  Solving for T, Initial residual = 9.5439916e-07, Final residual = 9.5439916e-07, No Iterations 0
DICPCG:  Solving for T, Initial residual = 9.5439916e-07, Final residual = 9.5439916e-07, No Iterations 0
ExecutionTime = 1.21 s  ClockTime = 1 s

Time = 10.25

DICPCG:  Solving for T, Initial residual = 9.5439916e-07, Final residual = 9.5439916e-07, No Iterations 0
DICPCG:  Solving for T, Initial residual = 9.5439916e-07, Final residual = 9.5439916e-07, No Iterations 0
DICPCG:  Solving for T, Initial residual = 9.5439916e-07, Final residual = 9.5439916e-07, No Iterations 0
ExecutionTime = 1.22 s  ClockTime = 1 s

Time = 10.3

DICPCG:  Solving for T, Initial residual = 9.5439916e-07, Final residual = 9.5439916e-07, No Iterations 0
DICPCG:  Solving for T, Initial residual = 9.5439916e-07, Final residual = 9.5439916e-07, No Iterations 0
DICPCG:  Solving for T, Initial residual = 9.5439916e-07, Final residual = 9.5439916e-07, No Iterations 0
ExecutionTime = 1.22 s  ClockTime = 1 s

Time = 10.35

DICPCG:  Solving for T, Initial residual = 9.5439916e-07, Final residual = 9.5439916e-07, No Iterations 0
DICPCG:  Solving for T, Initial residual = 9.5439916e-07, Final residual = 9.5439916e-07, No Iterations 0
DICPCG:  Solving for T, Initial residual = 9.5439916e-07, Final residual = 9.5439916e-07, No Iterations 0
ExecutionTime = 1.22 s  ClockTime = 1 s

Time = 10.4

DICPCG:  Solving for T, Initial residual = 9.5439916e-07, Final residual = 9.5439916e-07, No Iterations 0
DICPCG:  Solving for T, Initial residual = 9.5439916e-07, Final residual = 9.5439916e-07, No Iterations 0
DICPCG:  Solving for T, Initial residual = 9.5439916e-07, Final residual = 9.5439916e-07, No Iterations 0
ExecutionTime = 1.23 s  ClockTime = 1 s

Time = 10.45

DICPCG:  Solving for T, Initial residual = 9.5439916e-07, Final residual = 9.5439916e-07, No Iterations 0
DICPCG:  Solving for T, Initial residual = 9.5439916e-07, Final residual = 9.5439916e-07, No Iterations 0
DICPCG:  Solving for T, Initial residual = 9.5439916e-07, Final residual = 9.5439916e-07, No Iterations 0
ExecutionTime = 1.23 s  ClockTime = 1 s

Time = 10.5

DICPCG:  Solving for T, Initial residual = 9.5439916e-07, Final residual = 9.5439916e-07, No Iterations 0
DICPCG:  Solving for T, Initial residual = 9.5439916e-07, Final residual = 9.5439916e-07, No Iterations 0
DICPCG:  Solving for T, Initial residual = 9.5439916e-07, Final residual = 9.5439916e-07, No Iterations 0
ExecutionTime = 1.23 s  ClockTime = 1 s

Time = 10.55

DICPCG:  Solving for T, Initial residual = 9.5439916e-07, Final residual = 9.5439916e-07, No Iterations 0
DICPCG:  Solving for T, Initial residual = 9.5439916e-07, Final residual = 9.5439916e-07, No Iterations 0
DICPCG:  Solving for T, Initial residual = 9.5439916e-07, Final residual = 9.5439916e-07, No Iterations 0
ExecutionTime = 1.24 s  ClockTime = 1 s

Time = 10.6

DICPCG:  Solving for T, Initial residual = 9.5439916e-07, Final residual = 9.5439916e-07, No Iterations 0
DICPCG:  Solving for T, Initial residual = 9.5439916e-07, Final residual = 9.5439916e-07, No Iterations 0
[...]
ExecutionTime = 4.19 s  ClockTime = 4 s

Time = 47.4

DICPCG:  Solving for T, Initial residual = 9.5439916e-07, Final residual = 9.5439916e-07, No Iterations 0
DICPCG:  Solving for T, Initial residual = 9.5439916e-07, Final residual = 9.5439916e-07, No Iterations 0
DICPCG:  Solving for T, Initial residual = 9.5439916e-07, Final residual = 9.5439916e-07, No Iterations 0
ExecutionTime = 4.2 s  ClockTime = 4 s

Time = 47.45

DICPCG:  Solving for T, Initial residual = 9.5439916e-07, Final residual = 9.5439916e-07, No Iterations 0
DICPCG:  Solving for T, Initial residual = 9.5439916e-07, Final residual = 9.5439916e-07, No Iterations 0
DICPCG:  Solving for T, Initial residual = 9.5439916e-07, Final residual = 9.5439916e-07, No Iterations 0
ExecutionTime = 4.2 s  ClockTime = 4 s

Time = 47.5

DICPCG:  Solving for T, Initial residual = 9.5439916e-07, Final residual = 9.5439916e-07, No Iterations 0
DICPCG:  Solving for T, Initial residual = 9.5439916e-07, Final residual = 9.5439916e-07, No Iterations 0
DICPCG:  Solving for T, Initial residual = 9.5439916e-07, Final residual = 9.5439916e-07, No Iterations 0
ExecutionTime = 4.21 s  ClockTime = 4 s

Time = 47.55

DICPCG:  Solving for T, Initial residual = 9.5439916e-07, Final residual = 9.5439916e-07, No Iterations 0
DICPCG:  Solving for T, Initial residual = 9.5439916e-07, Final residual = 9.5439916e-07, No Iterations 0
DICPCG:  Solving for T, Initial residual = 9.5439916e-07, Final residual = 9.5439916e-07, No Iterations 0
ExecutionTime = 4.21 s  ClockTime = 4 s

Time = 47.6

DICPCG:  Solving for T, Initial residual = 9.5439916e-07, Final residual = 9.5439916e-07, No Iterations 0
DICPCG:  Solving for T, Initial residual = 9.5439916e-07, Final residual = 9.5439916e-07, No Iterations 0
DICPCG:  Solving for T, Initial residual = 9.5439916e-07, Final residual = 9.5439916e-07, No Iterations 0
ExecutionTime = 4.22 s  ClockTime = 4 s

Time = 47.65

DICPCG:  Solving for T, Initial residual = 9.5439916e-07, Final residual = 9.5439916e-07, No Iterations 0
DICPCG:  Solving for T, Initial residual = 9.5439916e-07, Final residual = 9.5439916e-07, No Iterations 0
DICPCG:  Solving for T, Initial residual = 9.5439916e-07, Final residual = 9.5439916e-07, No Iterations 0
ExecutionTime = 4.22 s  ClockTime = 4 s

Time = 47.7

DICPCG:  Solving for T, Initial residual = 9.5439916e-07, Final residual = 9.5439916e-07, No Iterations 0
DICPCG:  Solving for T, Initial residual = 9.5439916e-07, Final residual = 9.5439916e-07, No Iterations 0
DICPCG:  Solving for T, Initial residual = 9.5439916e-07, Final residual = 9.5439916e-07, No Iterations 0
ExecutionTime = 4.22 s  ClockTime = 4 s

Time = 47.75

DICPCG:  Solving for T, Initial residual = 9.5439916e-07, Final residual = 9.5439916e-07, No Iterations 0
DICPCG:  Solving for T, Initial residual = 9.5439916e-07, Final residual = 9.5439916e-07, No Iterations 0
DICPCG:  Solving for T, Initial residual = 9.5439916e-07, Final residual = 9.5439916e-07, No Iterations 0
ExecutionTime = 4.23 s  ClockTime = 4 s

Time = 47.8

DICPCG:  Solving for T, Initial residual = 9.5439916e-07, Final residual = 9.5439916e-07, No Iterations 0
DICPCG:  Solving for T, Initial residual = 9.5439916e-07, Final residual = 9.5439916e-07, No Iterations 0
DICPCG:  Solving for T, Initial residual = 9.5439916e-07, Final residual = 9.5439916e-07, No Iterations 0
ExecutionTime = 4.23 s  ClockTime = 4 s

Time = 47.85

DICPCG:  Solving for T, Initial residual = 9.5439916e-07, Final residual = 9.5439916e-07, No Iterations 0
DICPCG:  Solving for T, Initial residual = 9.5439916e-07, Final residual = 9.5439916e-07, No Iterations 0
DICPCG:  Solving for T, Initial residual = 9.5439916e-07, Final residual = 9.5439916e-07, No Iterations 0
ExecutionTime = 4.24 s  ClockTime = 4 s

Time = 47.9

DICPCG:  Solving for T, Initial residual = 9.5439916e-07, Final residual = 9.5439916e-07, No Iterations 0
DICPCG:  Solving for T, Initial residual = 9.5439916e-07, Final residual = 9.5439916e-07, No Iterations 0
DICPCG:  Solving for T, Initial residual = 9.5439916e-07, Final residual = 9.5439916e-07, No Iterations 0
ExecutionTime = 4.24 s  ClockTime = 4 s

Time = 47.95

DICPCG:  Solving for T, Initial residual = 9.5439916e-07, Final residual = 9.5439916e-07, No Iterations 0
DICPCG:  Solving for T, Initial residual = 9.5439916e-07, Final residual = 9.5439916e-07, No Iterations 0
DICPCG:  Solving for T, Initial residual = 9.5439916e-07, Final residual = 9.5439916e-07, No Iterations 0
ExecutionTime = 4.25 s  ClockTime = 4 s

Time = 48

DICPCG:  Solving for T, Initial residual = 9.5439916e-07, Final residual = 9.5439916e-07, No Iterations 0
DICPCG:  Solving for T, Initial residual = 9.5439916e-07, Final residual = 9.5439916e-07, No Iterations 0
DICPCG:  Solving for T, Initial residual = 9.5439916e-07, Final residual = 9.5439916e-07, No Iterations 0
ExecutionTime = 4.25 s  ClockTime = 4 s

Time = 48.05

DICPCG:  Solving for T, Initial residual = 9.5439916e-07, Final residual = 9.5439916e-07, No Iterations 0
DICPCG:  Solving for T, Initial residual = 9.5439916e-07, Final residual = 9.5439916e-07, No Iterations 0
DICPCG:  Solving for T, Initial residual = 9.5439916e-07, Final residual = 9.5439916e-07, No Iterations 0
ExecutionTime = 4.25 s  ClockTime = 4 s

Time = 48.1

DICPCG:  Solving for T, Initial residual = 9.5439916e-07, Final residual = 9.5439916e-07, No Iterations 0
DICPCG:  Solving for T, Initial residual = 9.5439916e-07, Final residual = 9.5439916e-07, No Iterations 0
DICPCG:  Solving for T, Initial residual = 9.5439916e-07, Final residual = 9.5439916e-07, No Iterations 0
ExecutionTime = 4.26 s  ClockTime = 4 s

Time = 48.15

DICPCG:  Solving for T, Initial residual = 9.5439916e-07, Final residual = 9.5439916e-07, No Iterations 0
DICPCG:  Solving for T, Initial residual = 9.5439916e-07, Final residual = 9.5439916e-07, No Iterations 0
DICPCG:  Solving for T, Initial residual = 9.5439916e-07, Final residual = 9.5439916e-07, No Iterations 0
ExecutionTime = 4.26 s  ClockTime = 4 s

Time = 48.2

DICPCG:  Solving for T, Initial residual = 9.5439916e-07, Final residual = 9.5439916e-07, No Iterations 0
DICPCG:  Solving for T, Initial residual = 9.5439916e-07, Final residual = 9.5439916e-07, No Iterations 0
DICPCG:  Solving for T, Initial residual = 9.5439916e-07, Final residual = 9.5439916e-07, No Iterations 0
ExecutionTime = 4.27 s  ClockTime = 4 s

Time = 48.25

DICPCG:  Solving for T, Initial residual = 9.5439916e-07, Final residual = 9.5439916e-07, No Iterations 0
DICPCG:  Solving for T, Initial residual = 9.5439916e-07, Final residual = 9.5439916e-07, No Iterations 0
DICPCG:  Solving for T, Initial residual = 9.5439916e-07, Final residual = 9.5439916e-07, No Iterations 0
ExecutionTime = 4.27 s  ClockTime = 4 s

Time = 48.3

DICPCG:  Solving for T, Initial residual = 9.5439916e-07, Final residual = 9.5439916e-07, No Iterations 0
DICPCG:  Solving for T, Initial residual = 9.5439916e-07, Final residual = 9.5439916e-07, No Iterations 0
DICPCG:  Solving for T, Initial residual = 9.5439916e-07, Final residual = 9.5439916e-07, No Iterations 0
ExecutionTime = 4.28 s  ClockTime = 4 s

Time = 48.35

DICPCG:  Solving for T, Initial residual = 9.5439916e-07, Final residual = 9.5439916e-07, No Iterations 0
DICPCG:  Solving for T, Initial residual = 9.5439916e-07, Final residual = 9.5439916e-07, No Iterations 0
DICPCG:  Solving for T, Initial residual = 9.5439916e-07, Final residual = 9.5439916e-07, No Iterations 0
ExecutionTime = 4.28 s  ClockTime = 4 s

Time = 48.4

DICPCG:  Solving for T, Initial residual = 9.5439916e-07, Final residual = 9.5439916e-07, No Iterations 0
DICPCG:  Solving for T, Initial residual = 9.5439916e-07, Final residual = 9.5439916e-07, No Iterations 0
DICPCG:  Solving for T, Initial residual = 9.5439916e-07, Final residual = 9.5439916e-07, No Iterations 0
ExecutionTime = 4.28 s  ClockTime = 4 s

Time = 48.45

DICPCG:  Solving for T, Initial residual = 9.5439916e-07, Final residual = 9.5439916e-07, No Iterations 0
DICPCG:  Solving for T, Initial residual = 9.5439916e-07, Final residual = 9.5439916e-07, No Iterations 0
DICPCG:  Solving for T, Initial residual = 9.5439916e-07, Final residual = 9.5439916e-07, No Iterations 0
ExecutionTime = 4.29 s  ClockTime = 4 s

Time = 48.5

DICPCG:  Solving for T, Initial residual = 9.5439916e-07, Final residual = 9.5439916e-07, No Iterations 0
DICPCG:  Solving for T, Initial residual = 9.5439916e-07, Final residual = 9.5439916e-07, No Iterations 0
DICPCG:  Solving for T, Initial residual = 9.5439916e-07, Final residual = 9.5439916e-07, No Iterations 0
ExecutionTime = 4.29 s  ClockTime = 4 s

Time = 48.55

DICPCG:  Solving for T, Initial residual = 9.5439916e-07, Final residual = 9.5439916e-07, No Iterations 0
DICPCG:  Solving for T, Initial residual = 9.5439916e-07, Final residual = 9.5439916e-07, No Iterations 0
DICPCG:  Solving for T, Initial residual = 9.5439916e-07, Final residual = 9.5439916e-07, No Iterations 0
ExecutionTime = 4.3 s  ClockTime = 4 s

Time = 48.6

DICPCG:  Solving for T, Initial residual = 9.5439916e-07, Final residual = 9.5439916e-07, No Iterations 0
DICPCG:  Solving for T, Initial residual = 9.5439916e-07, Final residual = 9.5439916e-07, No Iterations 0
DICPCG:  Solving for T, Initial residual = 9.5439916e-07, Final residual = 9.5439916e-07, No Iterations 0
ExecutionTime = 4.3 s  ClockTime = 4 s

Time = 48.65

DICPCG:  Solving for T, Initial residual = 9.5439916e-07, Final residual = 9.5439916e-07, No Iterations 0
DICPCG:  Solving for T, Initial residual = 9.5439916e-07, Final residual = 9.5439916e-07, No Iterations 0
DICPCG:  Solving for T, Initial residual = 9.5439916e-07, Final residual = 9.5439916e-07, No Iterations 0
ExecutionTime = 4.31 s  ClockTime = 4 s

Time = 48.7

DICPCG:  Solving for T, Initial residual = 9.5439916e-07, Final residual = 9.5439916e-07, No Iterations 0
DICPCG:  Solving for T, Initial residual = 9.5439916e-07, Final residual = 9.5439916e-07, No Iterations 0
DICPCG:  Solving for T, Initial residual = 9.5439916e-07, Final residual = 9.5439916e-07, No Iterations 0
ExecutionTime = 4.31 s  ClockTime = 4 s

Time = 48.75

DICPCG:  Solving for T, Initial residual = 9.5439916e-07, Final residual = 9.5439916e-07, No Iterations 0
DICPCG:  Solving for T, Initial residual = 9.5439916e-07, Final residual = 9.5439916e-07, No Iterations 0
DICPCG:  Solving for T, Initial residual = 9.5439916e-07, Final residual = 9.5439916e-07, No Iterations 0
ExecutionTime = 4.31 s  ClockTime = 4 s

Time = 48.8

DICPCG:  Solving for T, Initial residual = 9.5439916e-07, Final residual = 9.5439916e-07, No Iterations 0
DICPCG:  Solving for T, Initial residual = 9.5439916e-07, Final residual = 9.5439916e-07, No Iterations 0
DICPCG:  Solving for T, Initial residual = 9.5439916e-07, Final residual = 9.5439916e-07, No Iterations 0
ExecutionTime = 4.32 s  ClockTime = 4 s

Time = 48.85

DICPCG:  Solving for T, Initial residual = 9.5439916e-07, Final residual = 9.5439916e-07, No Iterations 0
DICPCG:  Solving for T, Initial residual = 9.5439916e-07, Final residual = 9.5439916e-07, No Iterations 0
DICPCG:  Solving for T, Initial residual = 9.5439916e-07, Final residual = 9.5439916e-07, No Iterations 0
ExecutionTime = 4.32 s  ClockTime = 4 s

Time = 48.9

DICPCG:  Solving for T, Initial residual = 9.5439916e-07, Final residual = 9.5439916e-07, No Iterations 0
DICPCG:  Solving for T, Initial residual = 9.5439916e-07, Final residual = 9.5439916e-07, No Iterations 0
DICPCG:  Solving for T, Initial residual = 9.5439916e-07, Final residual = 9.5439916e-07, No Iterations 0
ExecutionTime = 4.32 s  ClockTime = 4 s

Time = 48.95

DICPCG:  Solving for T, Initial residual = 9.5439916e-07, Final residual = 9.5439916e-07, No Iterations 0
DICPCG:  Solving for T, Initial residual = 9.5439916e-07, Final residual = 9.5439916e-07, No Iterations 0
DICPCG:  Solving for T, Initial residual = 9.5439916e-07, Final residual = 9.5439916e-07, No Iterations 0
ExecutionTime = 4.33 s  ClockTime = 4 s

Time = 49

DICPCG:  Solving for T, Initial residual = 9.5439916e-07, Final residual = 9.5439916e-07, No Iterations 0
DICPCG:  Solving for T, Initial residual = 9.5439916e-07, Final residual = 9.5439916e-07, No Iterations 0
DICPCG:  Solving for T, Initial residual = 9.5439916e-07, Final residual = 9.5439916e-07, No Iterations 0
ExecutionTime = 4.33 s  ClockTime = 4 s

Time = 49.05

DICPCG:  Solving for T, Initial residual = 9.5439916e-07, Final residual = 9.5439916e-07, No Iterations 0
DICPCG:  Solving for T, Initial residual = 9.5439916e-07, Final residual = 9.5439916e-07, No Iterations 0
DICPCG:  Solving for T, Initial residual = 9.5439916e-07, Final residual = 9.5439916e-07, No Iterations 0
ExecutionTime = 4.34 s  ClockTime = 4 s

Time = 49.1

DICPCG:  Solving for T, Initial residual = 9.5439916e-07, Final residual = 9.5439916e-07, No Iterations 0
DICPCG:  Solving for T, Initial residual = 9.5439916e-07, Final residual = 9.5439916e-07, No Iterations 0
DICPCG:  Solving for T, Initial residual = 9.5439916e-07, Final residual = 9.5439916e-07, No Iterations 0
ExecutionTime = 4.34 s  ClockTime = 4 s

Time = 49.15

DICPCG:  Solving for T, Initial residual = 9.5439916e-07, Final residual = 9.5439916e-07, No Iterations 0
DICPCG:  Solving for T, Initial residual = 9.5439916e-07, Final residual = 9.5439916e-07, No Iterations 0
DICPCG:  Solving for T, Initial residual = 9.5439916e-07, Final residual = 9.5439916e-07, No Iterations 0
ExecutionTime = 4.35 s  ClockTime = 4 s

Time = 49.2

DICPCG:  Solving for T, Initial residual = 9.5439916e-07, Final residual = 9.5439916e-07, No Iterations 0
DICPCG:  Solving for T, Initial residual = 9.5439916e-07, Final residual = 9.5439916e-07, No Iterations 0
DICPCG:  Solving for T, Initial residual = 9.5439916e-07, Final residual = 9.5439916e-07, No Iterations 0
ExecutionTime = 4.35 s  ClockTime = 4 s

Time = 49.25

DICPCG:  Solving for T, Initial residual = 9.5439916e-07, Final residual = 9.5439916e-07, No Iterations 0
DICPCG:  Solving for T, Initial residual = 9.5439916e-07, Final residual = 9.5439916e-07, No Iterations 0
DICPCG:  Solving for T, Initial residual = 9.5439916e-07, Final residual = 9.5439916e-07, No Iterations 0
ExecutionTime = 4.35 s  ClockTime = 4 s

Time = 49.3

DICPCG:  Solving for T, Initial residual = 9.5439916e-07, Final residual = 9.5439916e-07, No Iterations 0
DICPCG:  Solving for T, Initial residual = 9.5439916e-07, Final residual = 9.5439916e-07, No Iterations 0
DICPCG:  Solving for T, Initial residual = 9.5439916e-07, Final residual = 9.5439916e-07, No Iterations 0
ExecutionTime = 4.36 s  ClockTime = 4 s

Time = 49.35

DICPCG:  Solving for T, Initial residual = 9.5439916e-07, Final residual = 9.5439916e-07, No Iterations 0
DICPCG:  Solving for T, Initial residual = 9.5439916e-07, Final residual = 9.5439916e-07, No Iterations 0
DICPCG:  Solving for T, Initial residual = 9.5439916e-07, Final residual = 9.5439916e-07, No Iterations 0
ExecutionTime = 4.36 s  ClockTime = 4 s

Time = 49.4

DICPCG:  Solving for T, Initial residual = 9.5439916e-07, Final residual = 9.5439916e-07, No Iterations 0
DICPCG:  Solving for T, Initial residual = 9.5439916e-07, Final residual = 9.5439916e-07, No Iterations 0
DICPCG:  Solving for T, Initial residual = 9.5439916e-07, Final residual = 9.5439916e-07, No Iterations 0
ExecutionTime = 4.37 s  ClockTime = 4 s

Time = 49.45

DICPCG:  Solving for T, Initial residual = 9.5439916e-07, Final residual = 9.5439916e-07, No Iterations 0
DICPCG:  Solving for T, Initial residual = 9.5439916e-07, Final residual = 9.5439916e-07, No Iterations 0
DICPCG:  Solving for T, Initial residual = 9.5439916e-07, Final residual = 9.5439916e-07, No Iterations 0
ExecutionTime = 4.37 s  ClockTime = 4 s

Time = 49.5

DICPCG:  Solving for T, Initial residual = 9.5439916e-07, Final residual = 9.5439916e-07, No Iterations 0
DICPCG:  Solving for T, Initial residual = 9.5439916e-07, Final residual = 9.5439916e-07, No Iterations 0
DICPCG:  Solving for T, Initial residual = 9.5439916e-07, Final residual = 9.5439916e-07, No Iterations 0
ExecutionTime = 4.38 s  ClockTime = 4 s

Time = 49.55

DICPCG:  Solving for T, Initial residual = 9.5439916e-07, Final residual = 9.5439916e-07, No Iterations 0
DICPCG:  Solving for T, Initial residual = 9.5439916e-07, Final residual = 9.5439916e-07, No Iterations 0
DICPCG:  Solving for T, Initial residual = 9.5439916e-07, Final residual = 9.5439916e-07, No Iterations 0
ExecutionTime = 4.38 s  ClockTime = 4 s

Time = 49.6

DICPCG:  Solving for T, Initial residual = 9.5439916e-07, Final residual = 9.5439916e-07, No Iterations 0
DICPCG:  Solving for T, Initial residual = 9.5439916e-07, Final residual = 9.5439916e-07, No Iterations 0
DICPCG:  Solving for T, Initial residual = 9.5439916e-07, Final residual = 9.5439916e-07, No Iterations 0
ExecutionTime = 4.38 s  ClockTime = 4 s

Time = 49.65

DICPCG:  Solving for T, Initial residual = 9.5439916e-07, Final residual = 9.5439916e-07, No Iterations 0
DICPCG:  Solving for T, Initial residual = 9.5439916e-07, Final residual = 9.5439916e-07, No Iterations 0
DICPCG:  Solving for T, Initial residual = 9.5439916e-07, Final residual = 9.5439916e-07, No Iterations 0
ExecutionTime = 4.39 s  ClockTime = 4 s

Time = 49.7

DICPCG:  Solving for T, Initial residual = 9.5439916e-07, Final residual = 9.5439916e-07, No Iterations 0
DICPCG:  Solving for T, Initial residual = 9.5439916e-07, Final residual = 9.5439916e-07, No Iterations 0
DICPCG:  Solving for T, Initial residual = 9.5439916e-07, Final residual = 9.5439916e-07, No Iterations 0
ExecutionTime = 4.39 s  ClockTime = 4 s

Time = 49.75

DICPCG:  Solving for T, Initial residual = 9.5439916e-07, Final residual = 9.5439916e-07, No Iterations 0
DICPCG:  Solving for T, Initial residual = 9.5439916e-07, Final residual = 9.5439916e-07, No Iterations 0
DICPCG:  Solving for T, Initial residual = 9.5439916e-07, Final residual = 9.5439916e-07, No Iterations 0
ExecutionTime = 4.4 s  ClockTime = 4 s

Time = 49.8

DICPCG:  Solving for T, Initial residual = 9.5439916e-07, Final residual = 9.5439916e-07, No Iterations 0
DICPCG:  Solving for T, Initial residual = 9.5439916e-07, Final residual = 9.5439916e-07, No Iterations 0
DICPCG:  Solving for T, Initial residual = 9.5439916e-07, Final residual = 9.5439916e-07, No Iterations 0
ExecutionTime = 4.4 s  ClockTime = 4 s

Time = 49.85

DICPCG:  Solving for T, Initial residual = 9.5439916e-07, Final residual = 9.5439916e-07, No Iterations 0
DICPCG:  Solving for T, Initial residual = 9.5439916e-07, Final residual = 9.5439916e-07, No Iterations 0
DICPCG:  Solving for T, Initial residual = 9.5439916e-07, Final residual = 9.5439916e-07, No Iterations 0
ExecutionTime = 4.41 s  ClockTime = 4 s

Time = 49.9

DICPCG:  Solving for T, Initial residual = 9.5439916e-07, Final residual = 9.5439916e-07, No Iterations 0
DICPCG:  Solving for T, Initial residual = 9.5439916e-07, Final residual = 9.5439916e-07, No Iterations 0
DICPCG:  Solving for T, Initial residual = 9.5439916e-07, Final residual = 9.5439916e-07, No Iterations 0
ExecutionTime = 4.41 s  ClockTime = 4 s

Time = 49.95

DICPCG:  Solving for T, Initial residual = 9.5439916e-07, Final residual = 9.5439916e-07, No Iterations 0
DICPCG:  Solving for T, Initial residual = 9.5439916e-07, Final residual = 9.5439916e-07, No Iterations 0
DICPCG:  Solving for T, Initial residual = 9.5439916e-07, Final residual = 9.5439916e-07, No Iterations 0
ExecutionTime = 4.41 s  ClockTime = 4 s

Time = 50

DICPCG:  Solving for T, Initial residual = 9.5439916e-07, Final residual = 9.5439916e-07, No Iterations 0
DICPCG:  Solving for T, Initial residual = 9.5439916e-07, Final residual = 9.5439916e-07, No Iterations 0
DICPCG:  Solving for T, Initial residual = 9.5439916e-07, Final residual = 9.5439916e-07, No Iterations 0
ExecutionTime = 4.49 s  ClockTime = 4 s


The simulation of FOM is finishing at 4.5 s.

matchPatch: 10(0 23 25 27 29 22 24 26 28 17)

The solver is finishing at 4.52 s.

