/*---------------------------------------------------------------------------*\
| =========                 |                                                 |
| \\      /  F ield         | OpenFOAM: The Open Source CFD Toolbox           |
|  \\    /   O peration     | Version:  v2106                                 |
|   \\  /    A nd           | Website:  www.openfoam.com                      |
|    \\/     M anipulation  |                                                 |
\*---------------------------------------------------------------------------*/
Build  : _c15bfde3cb-20210624 OPENFOAM=2106
Arch   : "LSB;label=32;scalar=64"
Exec   : laplacianFoamLandNl
Date   : Sep 21 2022
Time   : 14:59:07
Host   : ites-fps-ruanLX
PID    : 31887
I/O    : uncollated
Case   : /home/ruan/Desktop/Shenhui_ruan/OpenFOAM/OpenFOAMsourcecode/laplacianFoamROM_LandNl/svdtest
nProcs : 1
trapFpe: Floating point exception trapping enabled (FOAM_SIGFPE).
fileModificationChecking : Monitoring run-time modified files using timeStampMaster (fileModificationSkew 5, maxFileModificationPolls 20)
allowSystemOperations : Allowing user-supplied system call operations

// * * * * * * * * * * * * * * * * * * * * * * * * * * * * * * * * * * * * * //
Create time

Create mesh for time = 0


SIMPLE: no convergence criteria found. Calculations will run for 100 steps.

Reading field T

Reading diffusivity DT

DTT1: 2e-06
DTT2: 0
No finite volume options present

Calculating temperature distribution

snapshots extract
time Interval of snapshots is: 0.1

Time = 0.05

DICPCG:  Solving for T, Initial residual = 1, Final residual = 9.6019463e-07, No Iterations 9
DICPCG:  Solving for T, Initial residual = 3.4593238e-07, Final residual = 3.4593238e-07, No Iterations 0
DICPCG:  Solving for T, Initial residual = 3.4593238e-07, Final residual = 3.4593238e-07, No Iterations 0
ExecutionTime = 0.04 s  ClockTime = 0 s

Time = 0.1

DICPCG:  Solving for T, Initial residual = 0.13506919, Final residual = 1.4790681e-07, No Iterations 6
DICPCG:  Solving for T, Initial residual = 1.207898e-07, Final residual = 1.207898e-07, No Iterations 0
DICPCG:  Solving for T, Initial residual = 1.207898e-07, Final residual = 1.207898e-07, No Iterations 0
ExecutionTime = 0.04 s  ClockTime = 0 s

runTime.value(): 0.1
snapshotsTime: 0.1
Time = 0.15

DICPCG:  Solving for T, Initial residual = 0.045711413, Final residual = 5.2301581e-07, No Iterations 5
DICPCG:  Solving for T, Initial residual = 4.8251852e-07, Final residual = 4.8251852e-07, No Iterations 0
DICPCG:  Solving for T, Initial residual = 4.8251852e-07, Final residual = 4.8251852e-07, No Iterations 0
ExecutionTime = 0.04 s  ClockTime = 0 s

Time = 0.2

DICPCG:  Solving for T, Initial residual = 0.024194839, Final residual = 3.6445896e-07, No Iterations 5
DICPCG:  Solving for T, Initial residual = 3.4818536e-07, Final residual = 3.4818536e-07, No Iterations 0
DICPCG:  Solving for T, Initial residual = 3.4818536e-07, Final residual = 3.4818536e-07, No Iterations 0
ExecutionTime = 0.04 s  ClockTime = 0 s

runTime.value(): 0.2
snapshotsTime: 0.2
Time = 0.25

DICPCG:  Solving for T, Initial residual = 0.016885696, Final residual = 2.7571321e-07, No Iterations 5
DICPCG:  Solving for T, Initial residual = 2.6646785e-07, Final residual = 2.6646785e-07, No Iterations 0
DICPCG:  Solving for T, Initial residual = 2.6646785e-07, Final residual = 2.6646785e-07, No Iterations 0
ExecutionTime = 0.04 s  ClockTime = 0 s

Time = 0.3

DICPCG:  Solving for T, Initial residual = 0.013594198, Final residual = 2.0666622e-07, No Iterations 5
DICPCG:  Solving for T, Initial residual = 2.0104332e-07, Final residual = 2.0104332e-07, No Iterations 0
DICPCG:  Solving for T, Initial residual = 2.0104332e-07, Final residual = 2.0104332e-07, No Iterations 0
ExecutionTime = 0.05 s  ClockTime = 0 s

Time = 0.35

DICPCG:  Solving for T, Initial residual = 0.011712407, Final residual = 1.6639533e-07, No Iterations 5
DICPCG:  Solving for T, Initial residual = 1.6256449e-07, Final residual = 1.6256449e-07, No Iterations 0
DICPCG:  Solving for T, Initial residual = 1.6256449e-07, Final residual = 1.6256449e-07, No Iterations 0
ExecutionTime = 0.05 s  ClockTime = 0 s

runTime.value(): 0.35
snapshotsTime: 0.3
Time = 0.4

DICPCG:  Solving for T, Initial residual = 0.010429345, Final residual = 1.4068408e-07, No Iterations 5
DICPCG:  Solving for T, Initial residual = 1.3786501e-07, Final residual = 1.3786501e-07, No Iterations 0
DICPCG:  Solving for T, Initial residual = 1.3786501e-07, Final residual = 1.3786501e-07, No Iterations 0
ExecutionTime = 0.05 s  ClockTime = 0 s

Time = 0.45

DICPCG:  Solving for T, Initial residual = 0.0094626175, Final residual = 1.2276277e-07, No Iterations 5
DICPCG:  Solving for T, Initial residual = 1.2048089e-07, Final residual = 1.2048089e-07, No Iterations 0
DICPCG:  Solving for T, Initial residual = 1.2048089e-07, Final residual = 1.2048089e-07, No Iterations 0
ExecutionTime = 0.05 s  ClockTime = 0 s

runTime.value(): 0.45
snapshotsTime: 0.4
Time = 0.5

DICPCG:  Solving for T, Initial residual = 0.0086921108, Final residual = 1.0944462e-07, No Iterations 5
DICPCG:  Solving for T, Initial residual = 1.0761582e-07, Final residual = 1.0761582e-07, No Iterations 0
DICPCG:  Solving for T, Initial residual = 1.0761582e-07, Final residual = 1.0761582e-07, No Iterations 0
ExecutionTime = 0.05 s  ClockTime = 0 s

Time = 0.55

DICPCG:  Solving for T, Initial residual = 0.0080631546, Final residual = 9.3154756e-07, No Iterations 4
DICPCG:  Solving for T, Initial residual = 9.1743293e-07, Final residual = 9.1743293e-07, No Iterations 0
DICPCG:  Solving for T, Initial residual = 9.1743293e-07, Final residual = 9.1743293e-07, No Iterations 0
ExecutionTime = 0.06 s  ClockTime = 0 s

runTime.value(): 0.55
snapshotsTime: 0.5
Time = 0.6

DICPCG:  Solving for T, Initial residual = 0.0075377917, Final residual = 8.5006834e-07, No Iterations 4
DICPCG:  Solving for T, Initial residual = 8.3830497e-07, Final residual = 8.3830497e-07, No Iterations 0
DICPCG:  Solving for T, Initial residual = 8.3830497e-07, Final residual = 8.3830497e-07, No Iterations 0
ExecutionTime = 0.06 s  ClockTime = 0 s

runTime.value(): 0.6
snapshotsTime: 0.6
Time = 0.65

DICPCG:  Solving for T, Initial residual = 0.0070854875, Final residual = 7.8212493e-07, No Iterations 4
DICPCG:  Solving for T, Initial residual = 7.7207664e-07, Final residual = 7.7207664e-07, No Iterations 0
DICPCG:  Solving for T, Initial residual = 7.7207664e-07, Final residual = 7.7207664e-07, No Iterations 0
ExecutionTime = 0.06 s  ClockTime = 0 s

Time = 0.7

DICPCG:  Solving for T, Initial residual = 0.0066916975, Final residual = 7.2451895e-07, No Iterations 4
DICPCG:  Solving for T, Initial residual = 7.1559788e-07, Final residual = 7.1559788e-07, No Iterations 0
DICPCG:  Solving for T, Initial residual = 7.1559788e-07, Final residual = 7.1559788e-07, No Iterations 0
ExecutionTime = 0.06 s  ClockTime = 0 s

runTime.value(): 0.7
snapshotsTime: 0.7
Time = 0.75

DICPCG:  Solving for T, Initial residual = 0.0063455759, Final residual = 6.7609979e-07, No Iterations 4
DICPCG:  Solving for T, Initial residual = 6.6835313e-07, Final residual = 6.6835313e-07, No Iterations 0
DICPCG:  Solving for T, Initial residual = 6.6835313e-07, Final residual = 6.6835313e-07, No Iterations 0
ExecutionTime = 0.07 s  ClockTime = 0 s

Time = 0.8

DICPCG:  Solving for T, Initial residual = 0.0060408481, Final residual = 6.3462897e-07, No Iterations 4
DICPCG:  Solving for T, Initial residual = 6.2783677e-07, Final residual = 6.2783677e-07, No Iterations 0
DICPCG:  Solving for T, Initial residual = 6.2783677e-07, Final residual = 6.2783677e-07, No Iterations 0
ExecutionTime = 0.07 s  ClockTime = 0 s

runTime.value(): 0.8
snapshotsTime: 0.8
Time = 0.85

DICPCG:  Solving for T, Initial residual = 0.0057703105, Final residual = 5.9838524e-07, No Iterations 4
DICPCG:  Solving for T, Initial residual = 5.9238251e-07, Final residual = 5.9238251e-07, No Iterations 0
DICPCG:  Solving for T, Initial residual = 5.9238251e-07, Final residual = 5.9238251e-07, No Iterations 0
ExecutionTime = 0.07 s  ClockTime = 0 s

Time = 0.9

DICPCG:  Solving for T, Initial residual = 0.0055283614, Final residual = 5.6667056e-07, No Iterations 4
DICPCG:  Solving for T, Initial residual = 5.6132578e-07, Final residual = 5.6132578e-07, No Iterations 0
DICPCG:  Solving for T, Initial residual = 5.6132578e-07, Final residual = 5.6132578e-07, No Iterations 0
ExecutionTime = 0.07 s  ClockTime = 0 s

runTime.value(): 0.9
snapshotsTime: 0.9
Time = 0.95

DICPCG:  Solving for T, Initial residual = 0.0053094937, Final residual = 5.3881026e-07, No Iterations 4
DICPCG:  Solving for T, Initial residual = 5.3412711e-07, Final residual = 5.3412711e-07, No Iterations 0
DICPCG:  Solving for T, Initial residual = 5.3412711e-07, Final residual = 5.3412711e-07, No Iterations 0
ExecutionTime = 0.08 s  ClockTime = 0 s

Time = 1

DICPCG:  Solving for T, Initial residual = 0.0051092618, Final residual = 5.1355524e-07, No Iterations 4
DICPCG:  Solving for T, Initial residual = 5.0908354e-07, Final residual = 5.0908354e-07, No Iterations 0
DICPCG:  Solving for T, Initial residual = 5.0908354e-07, Final residual = 5.0908354e-07, No Iterations 0
ExecutionTime = 0.08 s  ClockTime = 0 s

runTime.value(): 1
snapshotsTime: 1
Time = 1.05

DICPCG:  Solving for T, Initial residual = 0.0049242963, Final residual = 4.9057136e-07, No Iterations 4
DICPCG:  Solving for T, Initial residual = 4.8649659e-07, Final residual = 4.8649659e-07, No Iterations 0
DICPCG:  Solving for T, Initial residual = 4.8649659e-07, Final residual = 4.8649659e-07, No Iterations 0
ExecutionTime = 0.08 s  ClockTime = 0 s

Time = 1.1

DICPCG:  Solving for T, Initial residual = 0.0047549917, Final residual = 4.6958045e-07, No Iterations 4
DICPCG:  Solving for T, Initial residual = 4.658728e-07, Final residual = 4.658728e-07, No Iterations 0
DICPCG:  Solving for T, Initial residual = 4.658728e-07, Final residual = 4.658728e-07, No Iterations 0
ExecutionTime = 0.09 s  ClockTime = 0 s

runTime.value(): 1.1
snapshotsTime: 1.1
Time = 1.15

DICPCG:  Solving for T, Initial residual = 0.0045995846, Final residual = 4.5068005e-07, No Iterations 4
DICPCG:  Solving for T, Initial residual = 4.4729118e-07, Final residual = 4.4729118e-07, No Iterations 0
DICPCG:  Solving for T, Initial residual = 4.4729118e-07, Final residual = 4.4729118e-07, No Iterations 0
ExecutionTime = 0.09 s  ClockTime = 0 s

Time = 1.2

DICPCG:  Solving for T, Initial residual = 0.0044563913, Final residual = 4.3330847e-07, No Iterations 4
DICPCG:  Solving for T, Initial residual = 4.3020006e-07, Final residual = 4.3020006e-07, No Iterations 0
DICPCG:  Solving for T, Initial residual = 4.3020006e-07, Final residual = 4.3020006e-07, No Iterations 0
ExecutionTime = 0.09 s  ClockTime = 0 s

runTime.value(): 1.2
snapshotsTime: 1.2
Time = 1.25

DICPCG:  Solving for T, Initial residual = 0.0043239919, Final residual = 4.1743871e-07, No Iterations 4
DICPCG:  Solving for T, Initial residual = 4.1457718e-07, Final residual = 4.1457718e-07, No Iterations 0
DICPCG:  Solving for T, Initial residual = 4.1457718e-07, Final residual = 4.1457718e-07, No Iterations 0
ExecutionTime = 0.09 s  ClockTime = 0 s

Time = 1.3

DICPCG:  Solving for T, Initial residual = 0.0042011802, Final residual = 4.0284362e-07, No Iterations 4
DICPCG:  Solving for T, Initial residual = 4.0020079e-07, Final residual = 4.0020079e-07, No Iterations 0
DICPCG:  Solving for T, Initial residual = 4.0020079e-07, Final residual = 4.0020079e-07, No Iterations 0
ExecutionTime = 0.1 s  ClockTime = 0 s

runTime.value(): 1.3
snapshotsTime: 1.3
Time = 1.35

DICPCG:  Solving for T, Initial residual = 0.0040869249, Final residual = 3.8965933e-07, No Iterations 4
DICPCG:  Solving for T, Initial residual = 3.8720932e-07, Final residual = 3.8720932e-07, No Iterations 0
DICPCG:  Solving for T, Initial residual = 3.8720932e-07, Final residual = 3.8720932e-07, No Iterations 0
ExecutionTime = 0.1 s  ClockTime = 0 s

Time = 1.4

DICPCG:  Solving for T, Initial residual = 0.0039794237, Final residual = 3.7740868e-07, No Iterations 4
DICPCG:  Solving for T, Initial residual = 3.7519185e-07, Final residual = 3.7519185e-07, No Iterations 0
DICPCG:  Solving for T, Initial residual = 3.7519185e-07, Final residual = 3.7519185e-07, No Iterations 0
ExecutionTime = 0.1 s  ClockTime = 0 s

runTime.value(): 1.4
snapshotsTime: 1.4
Time = 1.45

DICPCG:  Solving for T, Initial residual = 0.0038780512, Final residual = 3.6599877e-07, No Iterations 4
DICPCG:  Solving for T, Initial residual = 3.6380006e-07, Final residual = 3.6380006e-07, No Iterations 0
DICPCG:  Solving for T, Initial residual = 3.6380006e-07, Final residual = 3.6380006e-07, No Iterations 0
ExecutionTime = 0.1 s  ClockTime = 0 s

Time = 1.5

DICPCG:  Solving for T, Initial residual = 0.0037816348, Final residual = 3.5523886e-07, No Iterations 4
DICPCG:  Solving for T, Initial residual = 3.5318503e-07, Final residual = 3.5318503e-07, No Iterations 0
DICPCG:  Solving for T, Initial residual = 3.5318503e-07, Final residual = 3.5318503e-07, No Iterations 0
ExecutionTime = 0.11 s  ClockTime = 0 s

runTime.value(): 1.5
snapshotsTime: 1.5
Time = 1.55

DICPCG:  Solving for T, Initial residual = 0.0036910746, Final residual = 3.4518844e-07, No Iterations 4
DICPCG:  Solving for T, Initial residual = 3.4326574e-07, Final residual = 3.4326574e-07, No Iterations 0
DICPCG:  Solving for T, Initial residual = 3.4326574e-07, Final residual = 3.4326574e-07, No Iterations 0
ExecutionTime = 0.11 s  ClockTime = 0 s

Time = 1.6

DICPCG:  Solving for T, Initial residual = 0.003605841, Final residual = 3.3568549e-07, No Iterations 4
DICPCG:  Solving for T, Initial residual = 3.3388234e-07, Final residual = 3.3388234e-07, No Iterations 0
DICPCG:  Solving for T, Initial residual = 3.3388234e-07, Final residual = 3.3388234e-07, No Iterations 0
ExecutionTime = 0.11 s  ClockTime = 0 s

runTime.value(): 1.6
snapshotsTime: 1.6
Time = 1.65

DICPCG:  Solving for T, Initial residual = 0.0035254671, Final residual = 3.2681242e-07, No Iterations 4
DICPCG:  Solving for T, Initial residual = 3.2511788e-07, Final residual = 3.2511788e-07, No Iterations 0
DICPCG:  Solving for T, Initial residual = 3.2511788e-07, Final residual = 3.2511788e-07, No Iterations 0
ExecutionTime = 0.11 s  ClockTime = 0 s

Time = 1.7

DICPCG:  Solving for T, Initial residual = 0.0034495394, Final residual = 3.1854141e-07, No Iterations 4
DICPCG:  Solving for T, Initial residual = 3.1694566e-07, Final residual = 3.1694566e-07, No Iterations 0
DICPCG:  Solving for T, Initial residual = 3.1694566e-07, Final residual = 3.1694566e-07, No Iterations 0
ExecutionTime = 0.12 s  ClockTime = 0 s

runTime.value(): 1.7
snapshotsTime: 1.7
Time = 1.75

DICPCG:  Solving for T, Initial residual = 0.0033776901, Final residual = 3.1076191e-07, No Iterations 4
DICPCG:  Solving for T, Initial residual = 3.0925653e-07, Final residual = 3.0925653e-07, No Iterations 0
DICPCG:  Solving for T, Initial residual = 3.0925653e-07, Final residual = 3.0925653e-07, No Iterations 0
ExecutionTime = 0.12 s  ClockTime = 0 s

Time = 1.8

DICPCG:  Solving for T, Initial residual = 0.0033095915, Final residual = 3.0347599e-07, No Iterations 4
DICPCG:  Solving for T, Initial residual = 3.0205329e-07, Final residual = 3.0205329e-07, No Iterations 0
DICPCG:  Solving for T, Initial residual = 3.0205329e-07, Final residual = 3.0205329e-07, No Iterations 0
ExecutionTime = 0.12 s  ClockTime = 0 s

runTime.value(): 1.8
snapshotsTime: 1.8
Time = 1.85

DICPCG:  Solving for T, Initial residual = 0.0032449499, Final residual = 2.9655574e-07, No Iterations 4
DICPCG:  Solving for T, Initial residual = 2.9520922e-07, Final residual = 2.9520922e-07, No Iterations 0
DICPCG:  Solving for T, Initial residual = 2.9520922e-07, Final residual = 2.9520922e-07, No Iterations 0
ExecutionTime = 0.12 s  ClockTime = 0 s

Time = 1.9

DICPCG:  Solving for T, Initial residual = 0.0031835021, Final residual = 2.8994827e-07, No Iterations 4
DICPCG:  Solving for T, Initial residual = 2.8867223e-07, Final residual = 2.8867223e-07, No Iterations 0
DICPCG:  Solving for T, Initial residual = 2.8867223e-07, Final residual = 2.8867223e-07, No Iterations 0
ExecutionTime = 0.13 s  ClockTime = 0 s

runTime.value(): 1.9
snapshotsTime: 1.9
Time = 1.95

DICPCG:  Solving for T, Initial residual = 0.0031250109, Final residual = 2.8368032e-07, No Iterations 4
DICPCG:  Solving for T, Initial residual = 2.8246937e-07, Final residual = 2.8246937e-07, No Iterations 0
DICPCG:  Solving for T, Initial residual = 2.8246937e-07, Final residual = 2.8246937e-07, No Iterations 0
ExecutionTime = 0.13 s  ClockTime = 0 s

Time = 2

DICPCG:  Solving for T, Initial residual = 0.0030684815, Final residual = 2.7764958e-07, No Iterations 4
DICPCG:  Solving for T, Initial residual = 2.7651287e-07, Final residual = 2.7651287e-07, No Iterations 0
DICPCG:  Solving for T, Initial residual = 2.7651287e-07, Final residual = 2.7651287e-07, No Iterations 0
ExecutionTime = 0.13 s  ClockTime = 0 s

runTime.value(): 2
snapshotsTime: 2
Time = 2.05

DICPCG:  Solving for T, Initial residual = 0.0030141624, Final residual = 2.7187666e-07, No Iterations 4
DICPCG:  Solving for T, Initial residual = 2.7074969e-07, Final residual = 2.7074969e-07, No Iterations 0
DICPCG:  Solving for T, Initial residual = 2.7074969e-07, Final residual = 2.7074969e-07, No Iterations 0
ExecutionTime = 0.13 s  ClockTime = 0 s

Time = 2.1

DICPCG:  Solving for T, Initial residual = 0.0029617691, Final residual = 2.6630034e-07, No Iterations 4
DICPCG:  Solving for T, Initial residual = 2.6522756e-07, Final residual = 2.6522756e-07, No Iterations 0
DICPCG:  Solving for T, Initial residual = 2.6522756e-07, Final residual = 2.6522756e-07, No Iterations 0
ExecutionTime = 0.14 s  ClockTime = 0 s

runTime.value(): 2.1
snapshotsTime: 2.1
Time = 2.15

DICPCG:  Solving for T, Initial residual = 0.0029116716, Final residual = 2.6101795e-07, No Iterations 4
DICPCG:  Solving for T, Initial residual = 2.5999547e-07, Final residual = 2.5999547e-07, No Iterations 0
DICPCG:  Solving for T, Initial residual = 2.5999547e-07, Final residual = 2.5999547e-07, No Iterations 0
ExecutionTime = 0.14 s  ClockTime = 0 s

Time = 2.2

DICPCG:  Solving for T, Initial residual = 0.0028637189, Final residual = 2.5602058e-07, No Iterations 4
DICPCG:  Solving for T, Initial residual = 2.5504484e-07, Final residual = 2.5504484e-07, No Iterations 0
DICPCG:  Solving for T, Initial residual = 2.5504484e-07, Final residual = 2.5504484e-07, No Iterations 0
ExecutionTime = 0.14 s  ClockTime = 0 s

Time = 2.25

DICPCG:  Solving for T, Initial residual = 0.0028177731, Final residual = 2.5127176e-07, No Iterations 4
DICPCG:  Solving for T, Initial residual = 2.5033955e-07, Final residual = 2.5033955e-07, No Iterations 0
DICPCG:  Solving for T, Initial residual = 2.5033955e-07, Final residual = 2.5033955e-07, No Iterations 0
ExecutionTime = 0.14 s  ClockTime = 0 s

runTime.value(): 2.25
snapshotsTime: 2.2
Time = 2.3

DICPCG:  Solving for T, Initial residual = 0.0027737078, Final residual = 2.4673115e-07, No Iterations 4
DICPCG:  Solving for T, Initial residual = 2.4583965e-07, Final residual = 2.4583965e-07, No Iterations 0
DICPCG:  Solving for T, Initial residual = 2.4583965e-07, Final residual = 2.4583965e-07, No Iterations 0
ExecutionTime = 0.14 s  ClockTime = 0 s

Time = 2.35

DICPCG:  Solving for T, Initial residual = 0.0027314071, Final residual = 2.4239317e-07, No Iterations 4
DICPCG:  Solving for T, Initial residual = 2.4153976e-07, Final residual = 2.4153976e-07, No Iterations 0
DICPCG:  Solving for T, Initial residual = 2.4153976e-07, Final residual = 2.4153976e-07, No Iterations 0
ExecutionTime = 0.15 s  ClockTime = 0 s

runTime.value(): 2.35
snapshotsTime: 2.3
Time = 2.4

DICPCG:  Solving for T, Initial residual = 0.0026907646, Final residual = 2.3824642e-07, No Iterations 4
DICPCG:  Solving for T, Initial residual = 2.3742869e-07, Final residual = 2.3742869e-07, No Iterations 0
DICPCG:  Solving for T, Initial residual = 2.3742869e-07, Final residual = 2.3742869e-07, No Iterations 0
ExecutionTime = 0.15 s  ClockTime = 0 s

Time = 2.45

DICPCG:  Solving for T, Initial residual = 0.0026516823, Final residual = 2.3426109e-07, No Iterations 4
DICPCG:  Solving for T, Initial residual = 2.3347689e-07, Final residual = 2.3347689e-07, No Iterations 0
DICPCG:  Solving for T, Initial residual = 2.3347689e-07, Final residual = 2.3347689e-07, No Iterations 0
ExecutionTime = 0.15 s  ClockTime = 0 s

runTime.value(): 2.45
snapshotsTime: 2.4
Time = 2.5

DICPCG:  Solving for T, Initial residual = 0.0026140696, Final residual = 2.304625e-07, No Iterations 4
DICPCG:  Solving for T, Initial residual = 2.2970973e-07, Final residual = 2.2970973e-07, No Iterations 0
DICPCG:  Solving for T, Initial residual = 2.2970973e-07, Final residual = 2.2970973e-07, No Iterations 0
ExecutionTime = 0.15 s  ClockTime = 0 s

Time = 2.55

DICPCG:  Solving for T, Initial residual = 0.002577843, Final residual = 2.2681811e-07, No Iterations 4
DICPCG:  Solving for T, Initial residual = 2.2609491e-07, Final residual = 2.2609491e-07, No Iterations 0
DICPCG:  Solving for T, Initial residual = 2.2609491e-07, Final residual = 2.2609491e-07, No Iterations 0
ExecutionTime = 0.16 s  ClockTime = 0 s

runTime.value(): 2.55
snapshotsTime: 2.5
Time = 2.6

DICPCG:  Solving for T, Initial residual = 0.0025429252, Final residual = 2.2330444e-07, No Iterations 4
DICPCG:  Solving for T, Initial residual = 2.2260913e-07, Final residual = 2.2260913e-07, No Iterations 0
DICPCG:  Solving for T, Initial residual = 2.2260913e-07, Final residual = 2.2260913e-07, No Iterations 0
ExecutionTime = 0.16 s  ClockTime = 0 s

Time = 2.65

DICPCG:  Solving for T, Initial residual = 0.0025092445, Final residual = 2.1992861e-07, No Iterations 4
DICPCG:  Solving for T, Initial residual = 2.192596e-07, Final residual = 2.192596e-07, No Iterations 0
DICPCG:  Solving for T, Initial residual = 2.192596e-07, Final residual = 2.192596e-07, No Iterations 0
ExecutionTime = 0.16 s  ClockTime = 0 s

runTime.value(): 2.65
snapshotsTime: 2.6
Time = 2.7

DICPCG:  Solving for T, Initial residual = 0.0024767346, Final residual = 2.1670491e-07, No Iterations 4
DICPCG:  Solving for T, Initial residual = 2.1606065e-07, Final residual = 2.1606065e-07, No Iterations 0
DICPCG:  Solving for T, Initial residual = 2.1606065e-07, Final residual = 2.1606065e-07, No Iterations 0
ExecutionTime = 0.16 s  ClockTime = 0 s

Time = 2.75

DICPCG:  Solving for T, Initial residual = 0.0024451102, Final residual = 2.1361752e-07, No Iterations 4
DICPCG:  Solving for T, Initial residual = 2.1301605e-07, Final residual = 2.1301605e-07, No Iterations 0
DICPCG:  Solving for T, Initial residual = 2.1301605e-07, Final residual = 2.1301605e-07, No Iterations 0
ExecutionTime = 0.17 s  ClockTime = 0 s

runTime.value(): 2.75
snapshotsTime: 2.7
Time = 2.8

DICPCG:  Solving for T, Initial residual = 0.0024143123, Final residual = 2.1059114e-07, No Iterations 4
DICPCG:  Solving for T, Initial residual = 2.0998449e-07, Final residual = 2.0998449e-07, No Iterations 0
DICPCG:  Solving for T, Initial residual = 2.0998449e-07, Final residual = 2.0998449e-07, No Iterations 0
ExecutionTime = 0.17 s  ClockTime = 0 s

Time = 2.85

DICPCG:  Solving for T, Initial residual = 0.002384152, Final residual = 2.0763452e-07, No Iterations 4
DICPCG:  Solving for T, Initial residual = 2.0704359e-07, Final residual = 2.0704359e-07, No Iterations 0
DICPCG:  Solving for T, Initial residual = 2.0704359e-07, Final residual = 2.0704359e-07, No Iterations 0
ExecutionTime = 0.17 s  ClockTime = 0 s

runTime.value(): 2.85
snapshotsTime: 2.8
Time = 2.9

DICPCG:  Solving for T, Initial residual = 0.0023549051, Final residual = 2.0476147e-07, No Iterations 4
DICPCG:  Solving for T, Initial residual = 2.0419123e-07, Final residual = 2.0419123e-07, No Iterations 0
DICPCG:  Solving for T, Initial residual = 2.0419123e-07, Final residual = 2.0419123e-07, No Iterations 0
ExecutionTime = 0.17 s  ClockTime = 0 s

Time = 2.95

DICPCG:  Solving for T, Initial residual = 0.0023265931, Final residual = 2.0200087e-07, No Iterations 4
DICPCG:  Solving for T, Initial residual = 2.0145023e-07, Final residual = 2.0145023e-07, No Iterations 0
DICPCG:  Solving for T, Initial residual = 2.0145023e-07, Final residual = 2.0145023e-07, No Iterations 0
ExecutionTime = 0.18 s  ClockTime = 0 s

runTime.value(): 2.95
snapshotsTime: 2.9
Time = 3

DICPCG:  Solving for T, Initial residual = 0.0022991705, Final residual = 1.993388e-07, No Iterations 4
DICPCG:  Solving for T, Initial residual = 1.9880676e-07, Final residual = 1.9880676e-07, No Iterations 0
DICPCG:  Solving for T, Initial residual = 1.9880676e-07, Final residual = 1.9880676e-07, No Iterations 0
ExecutionTime = 0.18 s  ClockTime = 0 s

Time = 3.05

DICPCG:  Solving for T, Initial residual = 0.0022725949, Final residual = 1.9675748e-07, No Iterations 4
DICPCG:  Solving for T, Initial residual = 1.9624314e-07, Final residual = 1.9624314e-07, No Iterations 0
DICPCG:  Solving for T, Initial residual = 1.9624314e-07, Final residual = 1.9624314e-07, No Iterations 0
ExecutionTime = 0.18 s  ClockTime = 0 s

runTime.value(): 3.05
snapshotsTime: 3
Time = 3.1

DICPCG:  Solving for T, Initial residual = 0.0022468264, Final residual = 1.9422845e-07, No Iterations 4
DICPCG:  Solving for T, Initial residual = 1.9373103e-07, Final residual = 1.9373103e-07, No Iterations 0
DICPCG:  Solving for T, Initial residual = 1.9373103e-07, Final residual = 1.9373103e-07, No Iterations 0
ExecutionTime = 0.19 s  ClockTime = 0 s

Time = 3.15

DICPCG:  Solving for T, Initial residual = 0.0022218277, Final residual = 1.9179047e-07, No Iterations 4
DICPCG:  Solving for T, Initial residual = 1.9130912e-07, Final residual = 1.9130912e-07, No Iterations 0
DICPCG:  Solving for T, Initial residual = 1.9130912e-07, Final residual = 1.9130912e-07, No Iterations 0
ExecutionTime = 0.19 s  ClockTime = 0 s

runTime.value(): 3.15
snapshotsTime: 3.1
Time = 3.2

DICPCG:  Solving for T, Initial residual = 0.0021975636, Final residual = 1.8944095e-07, No Iterations 4
DICPCG:  Solving for T, Initial residual = 1.889749e-07, Final residual = 1.889749e-07, No Iterations 0
DICPCG:  Solving for T, Initial residual = 1.889749e-07, Final residual = 1.889749e-07, No Iterations 0
ExecutionTime = 0.19 s  ClockTime = 0 s

Time = 3.25

DICPCG:  Solving for T, Initial residual = 0.0021740012, Final residual = 1.8715227e-07, No Iterations 4
DICPCG:  Solving for T, Initial residual = 1.8670082e-07, Final residual = 1.8670082e-07, No Iterations 0
DICPCG:  Solving for T, Initial residual = 1.8670082e-07, Final residual = 1.8670082e-07, No Iterations 0
ExecutionTime = 0.19 s  ClockTime = 0 s

runTime.value(): 3.25
snapshotsTime: 3.2
Time = 3.3

DICPCG:  Solving for T, Initial residual = 0.0021511093, Final residual = 1.849404e-07, No Iterations 4
DICPCG:  Solving for T, Initial residual = 1.8450288e-07, Final residual = 1.8450288e-07, No Iterations 0
DICPCG:  Solving for T, Initial residual = 1.8450288e-07, Final residual = 1.8450288e-07, No Iterations 0
ExecutionTime = 0.19 s  ClockTime = 0 s

Time = 3.35

DICPCG:  Solving for T, Initial residual = 0.0021288588, Final residual = 1.8278972e-07, No Iterations 4
DICPCG:  Solving for T, Initial residual = 1.823655e-07, Final residual = 1.823655e-07, No Iterations 0
DICPCG:  Solving for T, Initial residual = 1.823655e-07, Final residual = 1.823655e-07, No Iterations 0
ExecutionTime = 0.19 s  ClockTime = 0 s

runTime.value(): 3.35
snapshotsTime: 3.3
Time = 3.4

DICPCG:  Solving for T, Initial residual = 0.0021072219, Final residual = 1.8070841e-07, No Iterations 4
DICPCG:  Solving for T, Initial residual = 1.8029689e-07, Final residual = 1.8029689e-07, No Iterations 0
DICPCG:  Solving for T, Initial residual = 1.8029689e-07, Final residual = 1.8029689e-07, No Iterations 0
ExecutionTime = 0.2 s  ClockTime = 0 s

Time = 3.45

DICPCG:  Solving for T, Initial residual = 0.0020861726, Final residual = 1.7870688e-07, No Iterations 4
DICPCG:  Solving for T, Initial residual = 1.7830745e-07, Final residual = 1.7830745e-07, No Iterations 0
DICPCG:  Solving for T, Initial residual = 1.7830745e-07, Final residual = 1.7830745e-07, No Iterations 0
ExecutionTime = 0.2 s  ClockTime = 0 s

runTime.value(): 3.45
snapshotsTime: 3.4
Time = 3.5

DICPCG:  Solving for T, Initial residual = 0.0020656862, Final residual = 1.7675494e-07, No Iterations 4
DICPCG:  Solving for T, Initial residual = 1.763671e-07, Final residual = 1.763671e-07, No Iterations 0
DICPCG:  Solving for T, Initial residual = 1.763671e-07, Final residual = 1.763671e-07, No Iterations 0
ExecutionTime = 0.2 s  ClockTime = 0 s

Time = 3.55

DICPCG:  Solving for T, Initial residual = 0.0020457396, Final residual = 1.7485206e-07, No Iterations 4
DICPCG:  Solving for T, Initial residual = 1.7447533e-07, Final residual = 1.7447533e-07, No Iterations 0
DICPCG:  Solving for T, Initial residual = 1.7447533e-07, Final residual = 1.7447533e-07, No Iterations 0
ExecutionTime = 0.2 s  ClockTime = 0 s

runTime.value(): 3.55
snapshotsTime: 3.5
Time = 3.6

DICPCG:  Solving for T, Initial residual = 0.0020263106, Final residual = 1.7300464e-07, No Iterations 4
DICPCG:  Solving for T, Initial residual = 1.7263854e-07, Final residual = 1.7263854e-07, No Iterations 0
DICPCG:  Solving for T, Initial residual = 1.7263854e-07, Final residual = 1.7263854e-07, No Iterations 0
ExecutionTime = 0.21 s  ClockTime = 0 s

Time = 3.65

DICPCG:  Solving for T, Initial residual = 0.0020073784, Final residual = 1.7120098e-07, No Iterations 4
DICPCG:  Solving for T, Initial residual = 1.7084508e-07, Final residual = 1.7084508e-07, No Iterations 0
DICPCG:  Solving for T, Initial residual = 1.7084508e-07, Final residual = 1.7084508e-07, No Iterations 0
ExecutionTime = 0.21 s  ClockTime = 0 s

runTime.value(): 3.65
snapshotsTime: 3.6
Time = 3.7

DICPCG:  Solving for T, Initial residual = 0.0019889232, Final residual = 1.6944026e-07, No Iterations 4
DICPCG:  Solving for T, Initial residual = 1.6909416e-07, Final residual = 1.6909416e-07, No Iterations 0
DICPCG:  Solving for T, Initial residual = 1.6909416e-07, Final residual = 1.6909416e-07, No Iterations 0
ExecutionTime = 0.21 s  ClockTime = 0 s

Time = 3.75

DICPCG:  Solving for T, Initial residual = 0.0019709262, Final residual = 1.6772786e-07, No Iterations 4
DICPCG:  Solving for T, Initial residual = 1.6739116e-07, Final residual = 1.6739116e-07, No Iterations 0
DICPCG:  Solving for T, Initial residual = 1.6739116e-07, Final residual = 1.6739116e-07, No Iterations 0
ExecutionTime = 0.22 s  ClockTime = 0 s

runTime.value(): 3.75
snapshotsTime: 3.7
Time = 3.8

DICPCG:  Solving for T, Initial residual = 0.0019531528, Final residual = 1.6603851e-07, No Iterations 4
DICPCG:  Solving for T, Initial residual = 1.6572464e-07, Final residual = 1.6572464e-07, No Iterations 0
DICPCG:  Solving for T, Initial residual = 1.6572464e-07, Final residual = 1.6572464e-07, No Iterations 0
ExecutionTime = 0.22 s  ClockTime = 0 s

Time = 3.85

DICPCG:  Solving for T, Initial residual = 0.0019357497, Final residual = 1.64378e-07, No Iterations 4
DICPCG:  Solving for T, Initial residual = 1.6405422e-07, Final residual = 1.6405422e-07, No Iterations 0
DICPCG:  Solving for T, Initial residual = 1.6405422e-07, Final residual = 1.6405422e-07, No Iterations 0
ExecutionTime = 0.23 s  ClockTime = 0 s

runTime.value(): 3.85
snapshotsTime: 3.8
Time = 3.9

DICPCG:  Solving for T, Initial residual = 0.001918547, Final residual = 1.6274238e-07, No Iterations 4
DICPCG:  Solving for T, Initial residual = 1.6242726e-07, Final residual = 1.6242726e-07, No Iterations 0
DICPCG:  Solving for T, Initial residual = 1.6242726e-07, Final residual = 1.6242726e-07, No Iterations 0
ExecutionTime = 0.23 s  ClockTime = 0 s

Time = 3.95

DICPCG:  Solving for T, Initial residual = 0.0019017511, Final residual = 1.6116155e-07, No Iterations 4
DICPCG:  Solving for T, Initial residual = 1.6085471e-07, Final residual = 1.6085471e-07, No Iterations 0
DICPCG:  Solving for T, Initial residual = 1.6085471e-07, Final residual = 1.6085471e-07, No Iterations 0
ExecutionTime = 0.23 s  ClockTime = 0 s

runTime.value(): 3.95
snapshotsTime: 3.9
Time = 4

DICPCG:  Solving for T, Initial residual = 0.001885347, Final residual = 1.5963141e-07, No Iterations 4
DICPCG:  Solving for T, Initial residual = 1.5933253e-07, Final residual = 1.5933253e-07, No Iterations 0
DICPCG:  Solving for T, Initial residual = 1.5933253e-07, Final residual = 1.5933253e-07, No Iterations 0
ExecutionTime = 0.23 s  ClockTime = 1 s

Time = 4.05

DICPCG:  Solving for T, Initial residual = 0.0018693203, Final residual = 1.5812855e-07, No Iterations 4
DICPCG:  Solving for T, Initial residual = 1.5783734e-07, Final residual = 1.5783734e-07, No Iterations 0
DICPCG:  Solving for T, Initial residual = 1.5783734e-07, Final residual = 1.5783734e-07, No Iterations 0
ExecutionTime = 0.24 s  ClockTime = 1 s

runTime.value(): 4.05
snapshotsTime: 4
Time = 4.1

DICPCG:  Solving for T, Initial residual = 0.0018536573, Final residual = 1.5665688e-07, No Iterations 4
DICPCG:  Solving for T, Initial residual = 1.5637306e-07, Final residual = 1.5637306e-07, No Iterations 0
DICPCG:  Solving for T, Initial residual = 1.5637306e-07, Final residual = 1.5637306e-07, No Iterations 0
ExecutionTime = 0.24 s  ClockTime = 1 s

Time = 4.15

DICPCG:  Solving for T, Initial residual = 0.0018383448, Final residual = 1.5521578e-07, No Iterations 4
DICPCG:  Solving for T, Initial residual = 1.5493909e-07, Final residual = 1.5493909e-07, No Iterations 0
DICPCG:  Solving for T, Initial residual = 1.5493909e-07, Final residual = 1.5493909e-07, No Iterations 0
ExecutionTime = 0.24 s  ClockTime = 1 s

runTime.value(): 4.15
snapshotsTime: 4.1
Time = 4.2

DICPCG:  Solving for T, Initial residual = 0.0018233705, Final residual = 1.5379922e-07, No Iterations 4
DICPCG:  Solving for T, Initial residual = 1.5352943e-07, Final residual = 1.5352943e-07, No Iterations 0
DICPCG:  Solving for T, Initial residual = 1.5352943e-07, Final residual = 1.5352943e-07, No Iterations 0
ExecutionTime = 0.24 s  ClockTime = 1 s

Time = 4.25

DICPCG:  Solving for T, Initial residual = 0.0018087225, Final residual = 1.5240692e-07, No Iterations 4
DICPCG:  Solving for T, Initial residual = 1.5214378e-07, Final residual = 1.5214378e-07, No Iterations 0
DICPCG:  Solving for T, Initial residual = 1.5214378e-07, Final residual = 1.5214378e-07, No Iterations 0
ExecutionTime = 0.24 s  ClockTime = 1 s

runTime.value(): 4.25
snapshotsTime: 4.2
Time = 4.3

DICPCG:  Solving for T, Initial residual = 0.0017943893, Final residual = 1.5104659e-07, No Iterations 4
DICPCG:  Solving for T, Initial residual = 1.5078988e-07, Final residual = 1.5078988e-07, No Iterations 0
DICPCG:  Solving for T, Initial residual = 1.5078988e-07, Final residual = 1.5078988e-07, No Iterations 0
ExecutionTime = 0.24 s  ClockTime = 1 s

Time = 4.35

DICPCG:  Solving for T, Initial residual = 0.0017803601, Final residual = 1.4971918e-07, No Iterations 4
DICPCG:  Solving for T, Initial residual = 1.4946866e-07, Final residual = 1.4946866e-07, No Iterations 0
DICPCG:  Solving for T, Initial residual = 1.4946866e-07, Final residual = 1.4946866e-07, No Iterations 0
ExecutionTime = 0.25 s  ClockTime = 1 s

runTime.value(): 4.35
snapshotsTime: 4.3
Time = 4.4

DICPCG:  Solving for T, Initial residual = 0.0017666246, Final residual = 1.4842151e-07, No Iterations 4
DICPCG:  Solving for T, Initial residual = 1.4817696e-07, Final residual = 1.4817696e-07, No Iterations 0
DICPCG:  Solving for T, Initial residual = 1.4817696e-07, Final residual = 1.4817696e-07, No Iterations 0
ExecutionTime = 0.25 s  ClockTime = 1 s

Time = 4.45

DICPCG:  Solving for T, Initial residual = 0.0017531728, Final residual = 1.4716796e-07, No Iterations 4
DICPCG:  Solving for T, Initial residual = 1.4692916e-07, Final residual = 1.4692916e-07, No Iterations 0
DICPCG:  Solving for T, Initial residual = 1.4692916e-07, Final residual = 1.4692916e-07, No Iterations 0
ExecutionTime = 0.25 s  ClockTime = 1 s

runTime.value(): 4.45
snapshotsTime: 4.4
Time = 4.5

DICPCG:  Solving for T, Initial residual = 0.0017399952, Final residual = 1.4593721e-07, No Iterations 4
DICPCG:  Solving for T, Initial residual = 1.4570396e-07, Final residual = 1.4570396e-07, No Iterations 0
DICPCG:  Solving for T, Initial residual = 1.4570396e-07, Final residual = 1.4570396e-07, No Iterations 0
ExecutionTime = 0.25 s  ClockTime = 1 s

Time = 4.55

DICPCG:  Solving for T, Initial residual = 0.0017270827, Final residual = 1.4473686e-07, No Iterations 4
DICPCG:  Solving for T, Initial residual = 1.4450897e-07, Final residual = 1.4450897e-07, No Iterations 0
DICPCG:  Solving for T, Initial residual = 1.4450897e-07, Final residual = 1.4450897e-07, No Iterations 0
ExecutionTime = 0.25 s  ClockTime = 1 s

runTime.value(): 4.55
snapshotsTime: 4.5
Time = 4.6

DICPCG:  Solving for T, Initial residual = 0.0017144267, Final residual = 1.4356083e-07, No Iterations 4
DICPCG:  Solving for T, Initial residual = 1.4333813e-07, Final residual = 1.4333813e-07, No Iterations 0
DICPCG:  Solving for T, Initial residual = 1.4333813e-07, Final residual = 1.4333813e-07, No Iterations 0
ExecutionTime = 0.26 s  ClockTime = 1 s

Time = 4.65

DICPCG:  Solving for T, Initial residual = 0.0017020187, Final residual = 1.4240119e-07, No Iterations 4
DICPCG:  Solving for T, Initial residual = 1.4218352e-07, Final residual = 1.4218352e-07, No Iterations 0
DICPCG:  Solving for T, Initial residual = 1.4218352e-07, Final residual = 1.4218352e-07, No Iterations 0
ExecutionTime = 0.26 s  ClockTime = 1 s

runTime.value(): 4.65
snapshotsTime: 4.6
Time = 4.7

DICPCG:  Solving for T, Initial residual = 0.0016898508, Final residual = 1.4126131e-07, No Iterations 4
DICPCG:  Solving for T, Initial residual = 1.4104851e-07, Final residual = 1.4104851e-07, No Iterations 0
DICPCG:  Solving for T, Initial residual = 1.4104851e-07, Final residual = 1.4104851e-07, No Iterations 0
ExecutionTime = 0.26 s  ClockTime = 1 s

Time = 4.75

DICPCG:  Solving for T, Initial residual = 0.0016779153, Final residual = 1.4014019e-07, No Iterations 4
DICPCG:  Solving for T, Initial residual = 1.3993211e-07, Final residual = 1.3993211e-07, No Iterations 0
DICPCG:  Solving for T, Initial residual = 1.3993211e-07, Final residual = 1.3993211e-07, No Iterations 0
ExecutionTime = 0.26 s  ClockTime = 1 s

runTime.value(): 4.75
snapshotsTime: 4.7
Time = 4.8

DICPCG:  Solving for T, Initial residual = 0.0016662048, Final residual = 1.3903123e-07, No Iterations 4
DICPCG:  Solving for T, Initial residual = 1.3882774e-07, Final residual = 1.3882774e-07, No Iterations 0
DICPCG:  Solving for T, Initial residual = 1.3882774e-07, Final residual = 1.3882774e-07, No Iterations 0
ExecutionTime = 0.26 s  ClockTime = 1 s

Time = 4.85

DICPCG:  Solving for T, Initial residual = 0.0016547123, Final residual = 1.379411e-07, No Iterations 4
DICPCG:  Solving for T, Initial residual = 1.3774205e-07, Final residual = 1.3774205e-07, No Iterations 0
DICPCG:  Solving for T, Initial residual = 1.3774205e-07, Final residual = 1.3774205e-07, No Iterations 0
ExecutionTime = 0.27 s  ClockTime = 1 s

runTime.value(): 4.85
snapshotsTime: 4.8
Time = 4.9

DICPCG:  Solving for T, Initial residual = 0.001643431, Final residual = 1.3687097e-07, No Iterations 4
DICPCG:  Solving for T, Initial residual = 1.3667622e-07, Final residual = 1.3667622e-07, No Iterations 0
DICPCG:  Solving for T, Initial residual = 1.3667622e-07, Final residual = 1.3667622e-07, No Iterations 0
ExecutionTime = 0.27 s  ClockTime = 1 s

Time = 4.95

DICPCG:  Solving for T, Initial residual = 0.0016323544, Final residual = 1.3582484e-07, No Iterations 4
DICPCG:  Solving for T, Initial residual = 1.3563426e-07, Final residual = 1.3563426e-07, No Iterations 0
DICPCG:  Solving for T, Initial residual = 1.3563426e-07, Final residual = 1.3563426e-07, No Iterations 0
ExecutionTime = 0.27 s  ClockTime = 1 s

runTime.value(): 4.95
snapshotsTime: 4.9
Time = 5

DICPCG:  Solving for T, Initial residual = 0.0016214762, Final residual = 1.3480544e-07, No Iterations 4
DICPCG:  Solving for T, Initial residual = 1.3461889e-07, Final residual = 1.3461889e-07, No Iterations 0
DICPCG:  Solving for T, Initial residual = 1.3461889e-07, Final residual = 1.3461889e-07, No Iterations 0
ExecutionTime = 0.31 s  ClockTime = 1 s

Time = 5.05

DICPCG:  Solving for T, Initial residual = 0.0016107905, Final residual = 1.3379773e-07, No Iterations 4
DICPCG:  Solving for T, Initial residual = 1.336151e-07, Final residual = 1.336151e-07, No Iterations 0
DICPCG:  Solving for T, Initial residual = 1.336151e-07, Final residual = 1.336151e-07, No Iterations 0
ExecutionTime = 0.31 s  ClockTime = 1 s

runTime.value(): 5.05
snapshotsTime: 5
Time = 5.1

DICPCG:  Solving for T, Initial residual = 0.0016002914, Final residual = 1.3280704e-07, No Iterations 4
DICPCG:  Solving for T, Initial residual = 1.3262821e-07, Final residual = 1.3262821e-07, No Iterations 0
DICPCG:  Solving for T, Initial residual = 1.3262821e-07, Final residual = 1.3262821e-07, No Iterations 0
ExecutionTime = 0.31 s  ClockTime = 1 s

Time = 5.15

DICPCG:  Solving for T, Initial residual = 0.0015899733, Final residual = 1.3183772e-07, No Iterations 4
DICPCG:  Solving for T, Initial residual = 1.3166258e-07, Final residual = 1.3166258e-07, No Iterations 0
DICPCG:  Solving for T, Initial residual = 1.3166258e-07, Final residual = 1.3166258e-07, No Iterations 0
ExecutionTime = 0.31 s  ClockTime = 1 s

runTime.value(): 5.15
snapshotsTime: 5.1
Time = 5.2

DICPCG:  Solving for T, Initial residual = 0.0015797149, Final residual = 1.3088299e-07, No Iterations 4
DICPCG:  Solving for T, Initial residual = 1.3072104e-07, Final residual = 1.3072104e-07, No Iterations 0
DICPCG:  Solving for T, Initial residual = 1.3072104e-07, Final residual = 1.3072104e-07, No Iterations 0
ExecutionTime = 0.32 s  ClockTime = 1 s

Time = 5.25

DICPCG:  Solving for T, Initial residual = 0.0015696116, Final residual = 1.2994249e-07, No Iterations 4
DICPCG:  Solving for T, Initial residual = 1.2977423e-07, Final residual = 1.2977423e-07, No Iterations 0
DICPCG:  Solving for T, Initial residual = 1.2977423e-07, Final residual = 1.2977423e-07, No Iterations 0
ExecutionTime = 0.32 s  ClockTime = 1 s

runTime.value(): 5.25
snapshotsTime: 5.2
Time = 5.3

DICPCG:  Solving for T, Initial residual = 0.0015595525, Final residual = 1.2900276e-07, No Iterations 4
DICPCG:  Solving for T, Initial residual = 1.2883734e-07, Final residual = 1.2883734e-07, No Iterations 0
DICPCG:  Solving for T, Initial residual = 1.2883734e-07, Final residual = 1.2883734e-07, No Iterations 0
ExecutionTime = 0.33 s  ClockTime = 1 s

Time = 5.35

DICPCG:  Solving for T, Initial residual = 0.0015496529, Final residual = 1.2807353e-07, No Iterations 4
DICPCG:  Solving for T, Initial residual = 1.279115e-07, Final residual = 1.279115e-07, No Iterations 0
DICPCG:  Solving for T, Initial residual = 1.279115e-07, Final residual = 1.279115e-07, No Iterations 0
ExecutionTime = 0.34 s  ClockTime = 1 s

runTime.value(): 5.35
snapshotsTime: 5.3
Time = 5.4

DICPCG:  Solving for T, Initial residual = 0.0015399156, Final residual = 1.2715553e-07, No Iterations 4
DICPCG:  Solving for T, Initial residual = 1.2699678e-07, Final residual = 1.2699678e-07, No Iterations 0
DICPCG:  Solving for T, Initial residual = 1.2699678e-07, Final residual = 1.2699678e-07, No Iterations 0
ExecutionTime = 0.34 s  ClockTime = 1 s

Time = 5.45

DICPCG:  Solving for T, Initial residual = 0.0015303358, Final residual = 1.262562e-07, No Iterations 4
DICPCG:  Solving for T, Initial residual = 1.2610065e-07, Final residual = 1.2610065e-07, No Iterations 0
DICPCG:  Solving for T, Initial residual = 1.2610065e-07, Final residual = 1.2610065e-07, No Iterations 0
ExecutionTime = 0.35 s  ClockTime = 1 s

runTime.value(): 5.45
snapshotsTime: 5.4
Time = 5.5

DICPCG:  Solving for T, Initial residual = 0.0015209092, Final residual = 1.2536986e-07, No Iterations 4
DICPCG:  Solving for T, Initial residual = 1.2521741e-07, Final residual = 1.2521741e-07, No Iterations 0
DICPCG:  Solving for T, Initial residual = 1.2521741e-07, Final residual = 1.2521741e-07, No Iterations 0
ExecutionTime = 0.35 s  ClockTime = 1 s

Time = 5.55

DICPCG:  Solving for T, Initial residual = 0.0015116315, Final residual = 1.2449533e-07, No Iterations 4
DICPCG:  Solving for T, Initial residual = 1.2434591e-07, Final residual = 1.2434591e-07, No Iterations 0
DICPCG:  Solving for T, Initial residual = 1.2434591e-07, Final residual = 1.2434591e-07, No Iterations 0
ExecutionTime = 0.35 s  ClockTime = 1 s

runTime.value(): 5.55
snapshotsTime: 5.5
Time = 5.6

DICPCG:  Solving for T, Initial residual = 0.0015024985, Final residual = 1.2363811e-07, No Iterations 4
DICPCG:  Solving for T, Initial residual = 1.2349163e-07, Final residual = 1.2349163e-07, No Iterations 0
DICPCG:  Solving for T, Initial residual = 1.2349163e-07, Final residual = 1.2349163e-07, No Iterations 0
ExecutionTime = 0.35 s  ClockTime = 1 s

Time = 5.65

DICPCG:  Solving for T, Initial residual = 0.0014935064, Final residual = 1.2279368e-07, No Iterations 4
DICPCG:  Solving for T, Initial residual = 1.2265005e-07, Final residual = 1.2265005e-07, No Iterations 0
DICPCG:  Solving for T, Initial residual = 1.2265005e-07, Final residual = 1.2265005e-07, No Iterations 0
ExecutionTime = 0.35 s  ClockTime = 1 s

runTime.value(): 5.65
snapshotsTime: 5.6
Time = 5.7

DICPCG:  Solving for T, Initial residual = 0.0014846512, Final residual = 1.2196327e-07, No Iterations 4
DICPCG:  Solving for T, Initial residual = 1.2182242e-07, Final residual = 1.2182242e-07, No Iterations 0
DICPCG:  Solving for T, Initial residual = 1.2182242e-07, Final residual = 1.2182242e-07, No Iterations 0
ExecutionTime = 0.36 s  ClockTime = 1 s

Time = 5.75

DICPCG:  Solving for T, Initial residual = 0.0014759292, Final residual = 1.2115212e-07, No Iterations 4
DICPCG:  Solving for T, Initial residual = 1.2101396e-07, Final residual = 1.2101396e-07, No Iterations 0
DICPCG:  Solving for T, Initial residual = 1.2101396e-07, Final residual = 1.2101396e-07, No Iterations 0
ExecutionTime = 0.36 s  ClockTime = 1 s

runTime.value(): 5.75
snapshotsTime: 5.7
Time = 5.8

DICPCG:  Solving for T, Initial residual = 0.0014673369, Final residual = 1.2035454e-07, No Iterations 4
DICPCG:  Solving for T, Initial residual = 1.2021901e-07, Final residual = 1.2021901e-07, No Iterations 0
DICPCG:  Solving for T, Initial residual = 1.2021901e-07, Final residual = 1.2021901e-07, No Iterations 0
ExecutionTime = 0.36 s  ClockTime = 1 s

Time = 5.85

DICPCG:  Solving for T, Initial residual = 0.0014588709, Final residual = 1.1956816e-07, No Iterations 4
DICPCG:  Solving for T, Initial residual = 1.1943519e-07, Final residual = 1.1943519e-07, No Iterations 0
DICPCG:  Solving for T, Initial residual = 1.1943519e-07, Final residual = 1.1943519e-07, No Iterations 0
ExecutionTime = 0.37 s  ClockTime = 1 s

runTime.value(): 5.85
snapshotsTime: 5.8
Time = 5.9

DICPCG:  Solving for T, Initial residual = 0.0014505277, Final residual = 1.1878914e-07, No Iterations 4
DICPCG:  Solving for T, Initial residual = 1.1865866e-07, Final residual = 1.1865866e-07, No Iterations 0
DICPCG:  Solving for T, Initial residual = 1.1865866e-07, Final residual = 1.1865866e-07, No Iterations 0
ExecutionTime = 0.37 s  ClockTime = 1 s

Time = 5.95

DICPCG:  Solving for T, Initial residual = 0.0014423041, Final residual = 1.1801934e-07, No Iterations 4
DICPCG:  Solving for T, Initial residual = 1.178913e-07, Final residual = 1.178913e-07, No Iterations 0
DICPCG:  Solving for T, Initial residual = 1.178913e-07, Final residual = 1.178913e-07, No Iterations 0
ExecutionTime = 0.37 s  ClockTime = 1 s

runTime.value(): 5.95
snapshotsTime: 5.9
Time = 6

DICPCG:  Solving for T, Initial residual = 0.0014341971, Final residual = 1.1726244e-07, No Iterations 4
DICPCG:  Solving for T, Initial residual = 1.1713676e-07, Final residual = 1.1713676e-07, No Iterations 0
DICPCG:  Solving for T, Initial residual = 1.1713676e-07, Final residual = 1.1713676e-07, No Iterations 0
ExecutionTime = 0.38 s  ClockTime = 1 s

Time = 6.05

DICPCG:  Solving for T, Initial residual = 0.0014262036, Final residual = 1.1651404e-07, No Iterations 4
DICPCG:  Solving for T, Initial residual = 1.1639067e-07, Final residual = 1.1639067e-07, No Iterations 0
DICPCG:  Solving for T, Initial residual = 1.1639067e-07, Final residual = 1.1639067e-07, No Iterations 0
ExecutionTime = 0.38 s  ClockTime = 1 s

runTime.value(): 6.05
snapshotsTime: 6
Time = 6.1

DICPCG:  Solving for T, Initial residual = 0.0014183207, Final residual = 1.1577682e-07, No Iterations 4
DICPCG:  Solving for T, Initial residual = 1.1565569e-07, Final residual = 1.1565569e-07, No Iterations 0
DICPCG:  Solving for T, Initial residual = 1.1565569e-07, Final residual = 1.1565569e-07, No Iterations 0
ExecutionTime = 0.38 s  ClockTime = 1 s

Time = 6.15

DICPCG:  Solving for T, Initial residual = 0.0014105457, Final residual = 1.1504974e-07, No Iterations 4
DICPCG:  Solving for T, Initial residual = 1.1493081e-07, Final residual = 1.1493081e-07, No Iterations 0
DICPCG:  Solving for T, Initial residual = 1.1493081e-07, Final residual = 1.1493081e-07, No Iterations 0
ExecutionTime = 0.38 s  ClockTime = 1 s

runTime.value(): 6.15
snapshotsTime: 6.1
Time = 6.2

DICPCG:  Solving for T, Initial residual = 0.0014028757, Final residual = 1.1433141e-07, No Iterations 4
DICPCG:  Solving for T, Initial residual = 1.1421462e-07, Final residual = 1.1421462e-07, No Iterations 0
DICPCG:  Solving for T, Initial residual = 1.1421462e-07, Final residual = 1.1421462e-07, No Iterations 0
ExecutionTime = 0.39 s  ClockTime = 1 s

Time = 6.25

DICPCG:  Solving for T, Initial residual = 0.0013953082, Final residual = 1.1361988e-07, No Iterations 4
DICPCG:  Solving for T, Initial residual = 1.1350518e-07, Final residual = 1.1350518e-07, No Iterations 0
DICPCG:  Solving for T, Initial residual = 1.1350518e-07, Final residual = 1.1350518e-07, No Iterations 0
ExecutionTime = 0.39 s  ClockTime = 1 s

runTime.value(): 6.25
snapshotsTime: 6.2
Time = 6.3

DICPCG:  Solving for T, Initial residual = 0.0013878405, Final residual = 1.1291825e-07, No Iterations 4
DICPCG:  Solving for T, Initial residual = 1.1280559e-07, Final residual = 1.1280559e-07, No Iterations 0
DICPCG:  Solving for T, Initial residual = 1.1280559e-07, Final residual = 1.1280559e-07, No Iterations 0
ExecutionTime = 0.39 s  ClockTime = 1 s

Time = 6.35

DICPCG:  Solving for T, Initial residual = 0.0013804703, Final residual = 1.1222685e-07, No Iterations 4
DICPCG:  Solving for T, Initial residual = 1.1211618e-07, Final residual = 1.1211618e-07, No Iterations 0
DICPCG:  Solving for T, Initial residual = 1.1211618e-07, Final residual = 1.1211618e-07, No Iterations 0
ExecutionTime = 0.39 s  ClockTime = 1 s

runTime.value(): 6.35
snapshotsTime: 6.3
Time = 6.4

DICPCG:  Solving for T, Initial residual = 0.0013731952, Final residual = 1.1154213e-07, No Iterations 4
DICPCG:  Solving for T, Initial residual = 1.114334e-07, Final residual = 1.114334e-07, No Iterations 0
DICPCG:  Solving for T, Initial residual = 1.114334e-07, Final residual = 1.114334e-07, No Iterations 0
ExecutionTime = 0.4 s  ClockTime = 1 s

Time = 6.45

DICPCG:  Solving for T, Initial residual = 0.0013660128, Final residual = 1.1086539e-07, No Iterations 4
DICPCG:  Solving for T, Initial residual = 1.1075856e-07, Final residual = 1.1075856e-07, No Iterations 0
DICPCG:  Solving for T, Initial residual = 1.1075856e-07, Final residual = 1.1075856e-07, No Iterations 0
ExecutionTime = 0.4 s  ClockTime = 1 s

runTime.value(): 6.45
snapshotsTime: 6.4
Time = 6.5

DICPCG:  Solving for T, Initial residual = 0.0013589209, Final residual = 1.1019549e-07, No Iterations 4
DICPCG:  Solving for T, Initial residual = 1.1009051e-07, Final residual = 1.1009051e-07, No Iterations 0
DICPCG:  Solving for T, Initial residual = 1.1009051e-07, Final residual = 1.1009051e-07, No Iterations 0
ExecutionTime = 0.4 s  ClockTime = 1 s

Time = 6.55

DICPCG:  Solving for T, Initial residual = 0.0013519173, Final residual = 1.0954013e-07, No Iterations 4
DICPCG:  Solving for T, Initial residual = 1.0943695e-07, Final residual = 1.0943695e-07, No Iterations 0
DICPCG:  Solving for T, Initial residual = 1.0943695e-07, Final residual = 1.0943695e-07, No Iterations 0
ExecutionTime = 0.4 s  ClockTime = 1 s

runTime.value(): 6.55
snapshotsTime: 6.5
Time = 6.6

DICPCG:  Solving for T, Initial residual = 0.001345, Final residual = 1.0889551e-07, No Iterations 4
DICPCG:  Solving for T, Initial residual = 1.0879409e-07, Final residual = 1.0879409e-07, No Iterations 0
DICPCG:  Solving for T, Initial residual = 1.0879409e-07, Final residual = 1.0879409e-07, No Iterations 0
ExecutionTime = 0.41 s  ClockTime = 1 s

Time = 6.65

DICPCG:  Solving for T, Initial residual = 0.0013381669, Final residual = 1.0825907e-07, No Iterations 4
DICPCG:  Solving for T, Initial residual = 1.0815937e-07, Final residual = 1.0815937e-07, No Iterations 0
DICPCG:  Solving for T, Initial residual = 1.0815937e-07, Final residual = 1.0815937e-07, No Iterations 0
ExecutionTime = 0.41 s  ClockTime = 1 s

runTime.value(): 6.65
snapshotsTime: 6.6
Time = 6.7

DICPCG:  Solving for T, Initial residual = 0.001331416, Final residual = 9.952209e-07, No Iterations 3
DICPCG:  Solving for T, Initial residual = 9.9431435e-07, Final residual = 9.9431435e-07, No Iterations 0
DICPCG:  Solving for T, Initial residual = 9.9431435e-07, Final residual = 9.9431435e-07, No Iterations 0
ExecutionTime = 0.41 s  ClockTime = 1 s

Time = 6.75

DICPCG:  Solving for T, Initial residual = 0.0013247561, Final residual = 9.8879814e-07, No Iterations 3
DICPCG:  Solving for T, Initial residual = 9.8790736e-07, Final residual = 9.8790736e-07, No Iterations 0
DICPCG:  Solving for T, Initial residual = 9.8790736e-07, Final residual = 9.8790736e-07, No Iterations 0
ExecutionTime = 0.41 s  ClockTime = 1 s

runTime.value(): 6.75
snapshotsTime: 6.7
Time = 6.8

DICPCG:  Solving for T, Initial residual = 0.0013181706, Final residual = 9.8299664e-07, No Iterations 3
DICPCG:  Solving for T, Initial residual = 9.8212078e-07, Final residual = 9.8212078e-07, No Iterations 0
DICPCG:  Solving for T, Initial residual = 9.8212078e-07, Final residual = 9.8212078e-07, No Iterations 0
ExecutionTime = 0.42 s  ClockTime = 1 s

Time = 6.85

DICPCG:  Solving for T, Initial residual = 0.0013116604, Final residual = 9.7741597e-07, No Iterations 3
DICPCG:  Solving for T, Initial residual = 9.7655457e-07, Final residual = 9.7655457e-07, No Iterations 0
DICPCG:  Solving for T, Initial residual = 9.7655457e-07, Final residual = 9.7655457e-07, No Iterations 0
ExecutionTime = 0.42 s  ClockTime = 1 s

runTime.value(): 6.85
snapshotsTime: 6.8
Time = 6.9

DICPCG:  Solving for T, Initial residual = 0.0013052242, Final residual = 9.719163e-07, No Iterations 3
DICPCG:  Solving for T, Initial residual = 9.7106901e-07, Final residual = 9.7106901e-07, No Iterations 0
DICPCG:  Solving for T, Initial residual = 9.7106901e-07, Final residual = 9.7106901e-07, No Iterations 0
ExecutionTime = 0.42 s  ClockTime = 1 s

Time = 6.95

DICPCG:  Solving for T, Initial residual = 0.0012988607, Final residual = 9.6647481e-07, No Iterations 3
DICPCG:  Solving for T, Initial residual = 9.6564132e-07, Final residual = 9.6564132e-07, No Iterations 0
DICPCG:  Solving for T, Initial residual = 9.6564132e-07, Final residual = 9.6564132e-07, No Iterations 0
ExecutionTime = 0.42 s  ClockTime = 1 s

runTime.value(): 6.95
snapshotsTime: 6.9
Time = 7

DICPCG:  Solving for T, Initial residual = 0.0012925684, Final residual = 9.6109098e-07, No Iterations 3
DICPCG:  Solving for T, Initial residual = 9.60271e-07, Final residual = 9.60271e-07, No Iterations 0
DICPCG:  Solving for T, Initial residual = 9.60271e-07, Final residual = 9.60271e-07, No Iterations 0
ExecutionTime = 0.43 s  ClockTime = 1 s

Time = 7.05

DICPCG:  Solving for T, Initial residual = 0.0012863457, Final residual = 9.5574257e-07, No Iterations 3
DICPCG:  Solving for T, Initial residual = 9.5493581e-07, Final residual = 9.5493581e-07, No Iterations 0
DICPCG:  Solving for T, Initial residual = 9.5493581e-07, Final residual = 9.5493581e-07, No Iterations 0
ExecutionTime = 0.43 s  ClockTime = 1 s

runTime.value(): 7.05
snapshotsTime: 7
Time = 7.1

DICPCG:  Solving for T, Initial residual = 0.0012801911, Final residual = 9.5046358e-07, No Iterations 3
DICPCG:  Solving for T, Initial residual = 9.4966975e-07, Final residual = 9.4966975e-07, No Iterations 0
DICPCG:  Solving for T, Initial residual = 9.4966975e-07, Final residual = 9.4966975e-07, No Iterations 0
ExecutionTime = 0.43 s  ClockTime = 1 s

Time = 7.15

DICPCG:  Solving for T, Initial residual = 0.0012740542, Final residual = 9.4520115e-07, No Iterations 3
DICPCG:  Solving for T, Initial residual = 9.4445631e-07, Final residual = 9.4445631e-07, No Iterations 0
DICPCG:  Solving for T, Initial residual = 9.4445631e-07, Final residual = 9.4445631e-07, No Iterations 0
ExecutionTime = 0.43 s  ClockTime = 1 s

runTime.value(): 7.15
snapshotsTime: 7.1
Time = 7.2

DICPCG:  Solving for T, Initial residual = 0.0012679622, Final residual = 9.4000362e-07, No Iterations 3
DICPCG:  Solving for T, Initial residual = 9.3926579e-07, Final residual = 9.3926579e-07, No Iterations 0
DICPCG:  Solving for T, Initial residual = 9.3926579e-07, Final residual = 9.3926579e-07, No Iterations 0
ExecutionTime = 0.43 s  ClockTime = 1 s

Time = 7.25

DICPCG:  Solving for T, Initial residual = 0.001261897, Final residual = 9.3483045e-07, No Iterations 3
DICPCG:  Solving for T, Initial residual = 9.3408166e-07, Final residual = 9.3408166e-07, No Iterations 0
DICPCG:  Solving for T, Initial residual = 9.3408166e-07, Final residual = 9.3408166e-07, No Iterations 0
ExecutionTime = 0.44 s  ClockTime = 1 s

runTime.value(): 7.25
snapshotsTime: 7.2
Time = 7.3

DICPCG:  Solving for T, Initial residual = 0.0012558654, Final residual = 9.2967221e-07, No Iterations 3
DICPCG:  Solving for T, Initial residual = 9.2893553e-07, Final residual = 9.2893553e-07, No Iterations 0
DICPCG:  Solving for T, Initial residual = 9.2893553e-07, Final residual = 9.2893553e-07, No Iterations 0
ExecutionTime = 0.44 s  ClockTime = 1 s

Time = 7.35

DICPCG:  Solving for T, Initial residual = 0.0012498975, Final residual = 9.2456069e-07, No Iterations 3
DICPCG:  Solving for T, Initial residual = 9.2383586e-07, Final residual = 9.2383586e-07, No Iterations 0
DICPCG:  Solving for T, Initial residual = 9.2383586e-07, Final residual = 9.2383586e-07, No Iterations 0
ExecutionTime = 0.45 s  ClockTime = 1 s

runTime.value(): 7.35
snapshotsTime: 7.3
Time = 7.4

DICPCG:  Solving for T, Initial residual = 0.0012439921, Final residual = 9.19512e-07, No Iterations 3
DICPCG:  Solving for T, Initial residual = 9.1879876e-07, Final residual = 9.1879876e-07, No Iterations 0
DICPCG:  Solving for T, Initial residual = 9.1879876e-07, Final residual = 9.1879876e-07, No Iterations 0
ExecutionTime = 0.45 s  ClockTime = 1 s

Time = 7.45

DICPCG:  Solving for T, Initial residual = 0.0012381478, Final residual = 9.14508e-07, No Iterations 3
DICPCG:  Solving for T, Initial residual = 9.1380612e-07, Final residual = 9.1380612e-07, No Iterations 0
DICPCG:  Solving for T, Initial residual = 9.1380612e-07, Final residual = 9.1380612e-07, No Iterations 0
ExecutionTime = 0.45 s  ClockTime = 1 s

runTime.value(): 7.45
snapshotsTime: 7.4
Time = 7.5

DICPCG:  Solving for T, Initial residual = 0.0012323634, Final residual = 9.0954721e-07, No Iterations 3
DICPCG:  Solving for T, Initial residual = 9.0885645e-07, Final residual = 9.0885645e-07, No Iterations 0
DICPCG:  Solving for T, Initial residual = 9.0885645e-07, Final residual = 9.0885645e-07, No Iterations 0
ExecutionTime = 0.45 s  ClockTime = 1 s

Time = 7.55

DICPCG:  Solving for T, Initial residual = 0.0012266376, Final residual = 9.0464396e-07, No Iterations 3
DICPCG:  Solving for T, Initial residual = 9.0396408e-07, Final residual = 9.0396408e-07, No Iterations 0
DICPCG:  Solving for T, Initial residual = 9.0396408e-07, Final residual = 9.0396408e-07, No Iterations 0
ExecutionTime = 0.46 s  ClockTime = 1 s

runTime.value(): 7.55
snapshotsTime: 7.5
Time = 7.6

DICPCG:  Solving for T, Initial residual = 0.0012209694, Final residual = 8.9978693e-07, No Iterations 3
DICPCG:  Solving for T, Initial residual = 8.9911771e-07, Final residual = 8.9911771e-07, No Iterations 0
DICPCG:  Solving for T, Initial residual = 8.9911771e-07, Final residual = 8.9911771e-07, No Iterations 0
ExecutionTime = 0.46 s  ClockTime = 1 s

Time = 7.65

DICPCG:  Solving for T, Initial residual = 0.0012153574, Final residual = 8.9498788e-07, No Iterations 3
DICPCG:  Solving for T, Initial residual = 8.9432909e-07, Final residual = 8.9432909e-07, No Iterations 0
DICPCG:  Solving for T, Initial residual = 8.9432909e-07, Final residual = 8.9432909e-07, No Iterations 0
ExecutionTime = 0.46 s  ClockTime = 1 s

runTime.value(): 7.65
snapshotsTime: 7.6
Time = 7.7

DICPCG:  Solving for T, Initial residual = 0.0012098007, Final residual = 8.9022217e-07, No Iterations 3
DICPCG:  Solving for T, Initial residual = 8.8957361e-07, Final residual = 8.8957361e-07, No Iterations 0
DICPCG:  Solving for T, Initial residual = 8.8957361e-07, Final residual = 8.8957361e-07, No Iterations 0
ExecutionTime = 0.46 s  ClockTime = 1 s

Time = 7.75

DICPCG:  Solving for T, Initial residual = 0.001204298, Final residual = 8.8549195e-07, No Iterations 3
DICPCG:  Solving for T, Initial residual = 8.8485342e-07, Final residual = 8.8485342e-07, No Iterations 0
DICPCG:  Solving for T, Initial residual = 8.8485342e-07, Final residual = 8.8485342e-07, No Iterations 0
ExecutionTime = 0.46 s  ClockTime = 1 s

runTime.value(): 7.75
snapshotsTime: 7.7
Time = 7.8

DICPCG:  Solving for T, Initial residual = 0.0011988485, Final residual = 8.8081703e-07, No Iterations 3
DICPCG:  Solving for T, Initial residual = 8.8018832e-07, Final residual = 8.8018832e-07, No Iterations 0
DICPCG:  Solving for T, Initial residual = 8.8018832e-07, Final residual = 8.8018832e-07, No Iterations 0
ExecutionTime = 0.47 s  ClockTime = 1 s

Time = 7.85

DICPCG:  Solving for T, Initial residual = 0.0011934509, Final residual = 8.762017e-07, No Iterations 3
DICPCG:  Solving for T, Initial residual = 8.7558259e-07, Final residual = 8.7558259e-07, No Iterations 0
DICPCG:  Solving for T, Initial residual = 8.7558259e-07, Final residual = 8.7558259e-07, No Iterations 0
ExecutionTime = 0.47 s  ClockTime = 1 s

runTime.value(): 7.85
snapshotsTime: 7.8
Time = 7.9

DICPCG:  Solving for T, Initial residual = 0.0011881044, Final residual = 8.7161765e-07, No Iterations 3
DICPCG:  Solving for T, Initial residual = 8.7100797e-07, Final residual = 8.7100797e-07, No Iterations 0
DICPCG:  Solving for T, Initial residual = 8.7100797e-07, Final residual = 8.7100797e-07, No Iterations 0
ExecutionTime = 0.47 s  ClockTime = 1 s

Time = 7.95

DICPCG:  Solving for T, Initial residual = 0.0011828079, Final residual = 8.6708463e-07, No Iterations 3
DICPCG:  Solving for T, Initial residual = 8.6648417e-07, Final residual = 8.6648417e-07, No Iterations 0
DICPCG:  Solving for T, Initial residual = 8.6648417e-07, Final residual = 8.6648417e-07, No Iterations 0
ExecutionTime = 0.47 s  ClockTime = 1 s

runTime.value(): 7.95
snapshotsTime: 7.9
Time = 8

DICPCG:  Solving for T, Initial residual = 0.0011775605, Final residual = 8.6259505e-07, No Iterations 3
DICPCG:  Solving for T, Initial residual = 8.6200364e-07, Final residual = 8.6200364e-07, No Iterations 0
DICPCG:  Solving for T, Initial residual = 8.6200364e-07, Final residual = 8.6200364e-07, No Iterations 0
ExecutionTime = 0.48 s  ClockTime = 1 s

Time = 8.05

DICPCG:  Solving for T, Initial residual = 0.0011723613, Final residual = 8.5814537e-07, No Iterations 3
DICPCG:  Solving for T, Initial residual = 8.5756283e-07, Final residual = 8.5756283e-07, No Iterations 0
DICPCG:  Solving for T, Initial residual = 8.5756283e-07, Final residual = 8.5756283e-07, No Iterations 0
ExecutionTime = 0.48 s  ClockTime = 1 s

runTime.value(): 8.05
snapshotsTime: 8
Time = 8.1

DICPCG:  Solving for T, Initial residual = 0.0011672093, Final residual = 8.5372446e-07, No Iterations 3
DICPCG:  Solving for T, Initial residual = 8.5315062e-07, Final residual = 8.5315062e-07, No Iterations 0
DICPCG:  Solving for T, Initial residual = 8.5315062e-07, Final residual = 8.5315062e-07, No Iterations 0
ExecutionTime = 0.48 s  ClockTime = 1 s

Time = 8.15

DICPCG:  Solving for T, Initial residual = 0.0011621037, Final residual = 8.4933884e-07, No Iterations 3
DICPCG:  Solving for T, Initial residual = 8.4877353e-07, Final residual = 8.4877353e-07, No Iterations 0
DICPCG:  Solving for T, Initial residual = 8.4877353e-07, Final residual = 8.4877353e-07, No Iterations 0
ExecutionTime = 0.48 s  ClockTime = 1 s

runTime.value(): 8.15
snapshotsTime: 8.1
Time = 8.2

DICPCG:  Solving for T, Initial residual = 0.0011570437, Final residual = 8.4498952e-07, No Iterations 3
DICPCG:  Solving for T, Initial residual = 8.4443258e-07, Final residual = 8.4443258e-07, No Iterations 0
DICPCG:  Solving for T, Initial residual = 8.4443258e-07, Final residual = 8.4443258e-07, No Iterations 0
ExecutionTime = 0.48 s  ClockTime = 1 s

Time = 8.25

DICPCG:  Solving for T, Initial residual = 0.0011520283, Final residual = 8.4067464e-07, No Iterations 3
DICPCG:  Solving for T, Initial residual = 8.4012592e-07, Final residual = 8.4012592e-07, No Iterations 0
DICPCG:  Solving for T, Initial residual = 8.4012592e-07, Final residual = 8.4012592e-07, No Iterations 0
ExecutionTime = 0.49 s  ClockTime = 1 s

runTime.value(): 8.25
snapshotsTime: 8.2
Time = 8.3

DICPCG:  Solving for T, Initial residual = 0.0011470568, Final residual = 8.3641092e-07, No Iterations 3
DICPCG:  Solving for T, Initial residual = 8.3587023e-07, Final residual = 8.3587023e-07, No Iterations 0
DICPCG:  Solving for T, Initial residual = 8.3587023e-07, Final residual = 8.3587023e-07, No Iterations 0
ExecutionTime = 0.49 s  ClockTime = 1 s

Time = 8.35

DICPCG:  Solving for T, Initial residual = 0.0011421283, Final residual = 8.3219709e-07, No Iterations 3
DICPCG:  Solving for T, Initial residual = 8.3166429e-07, Final residual = 8.3166429e-07, No Iterations 0
DICPCG:  Solving for T, Initial residual = 8.3166429e-07, Final residual = 8.3166429e-07, No Iterations 0
ExecutionTime = 0.49 s  ClockTime = 1 s

runTime.value(): 8.35
snapshotsTime: 8.3
Time = 8.4

DICPCG:  Solving for T, Initial residual = 0.0011372422, Final residual = 8.2803303e-07, No Iterations 3
DICPCG:  Solving for T, Initial residual = 8.2750795e-07, Final residual = 8.2750795e-07, No Iterations 0
DICPCG:  Solving for T, Initial residual = 8.2750795e-07, Final residual = 8.2750795e-07, No Iterations 0
ExecutionTime = 0.49 s  ClockTime = 1 s

Time = 8.45

DICPCG:  Solving for T, Initial residual = 0.0011323977, Final residual = 8.2391236e-07, No Iterations 3
DICPCG:  Solving for T, Initial residual = 8.2339485e-07, Final residual = 8.2339485e-07, No Iterations 0
DICPCG:  Solving for T, Initial residual = 8.2339485e-07, Final residual = 8.2339485e-07, No Iterations 0
ExecutionTime = 0.49 s  ClockTime = 1 s

runTime.value(): 8.45
snapshotsTime: 8.4
Time = 8.5

DICPCG:  Solving for T, Initial residual = 0.0011275939, Final residual = 8.1983008e-07, No Iterations 3
DICPCG:  Solving for T, Initial residual = 8.1932e-07, Final residual = 8.1932e-07, No Iterations 0
DICPCG:  Solving for T, Initial residual = 8.1932e-07, Final residual = 8.1932e-07, No Iterations 0
ExecutionTime = 0.49 s  ClockTime = 1 s

runTime.value(): 8.5
snapshotsTime: 8.5
Time = 8.55

DICPCG:  Solving for T, Initial residual = 0.0011228303, Final residual = 8.1578364e-07, No Iterations 3
DICPCG:  Solving for T, Initial residual = 8.1528085e-07, Final residual = 8.1528085e-07, No Iterations 0
DICPCG:  Solving for T, Initial residual = 8.1528085e-07, Final residual = 8.1528085e-07, No Iterations 0
ExecutionTime = 0.5 s  ClockTime = 1 s

Time = 8.6

DICPCG:  Solving for T, Initial residual = 0.0011181061, Final residual = 8.1177499e-07, No Iterations 3
DICPCG:  Solving for T, Initial residual = 8.1127935e-07, Final residual = 8.1127935e-07, No Iterations 0
DICPCG:  Solving for T, Initial residual = 8.1127935e-07, Final residual = 8.1127935e-07, No Iterations 0
ExecutionTime = 0.5 s  ClockTime = 1 s

runTime.value(): 8.6
snapshotsTime: 8.6
Time = 8.65

DICPCG:  Solving for T, Initial residual = 0.0011134207, Final residual = 8.0780094e-07, No Iterations 3
DICPCG:  Solving for T, Initial residual = 8.0731232e-07, Final residual = 8.0731232e-07, No Iterations 0
DICPCG:  Solving for T, Initial residual = 8.0731232e-07, Final residual = 8.0731232e-07, No Iterations 0
ExecutionTime = 0.5 s  ClockTime = 1 s

Time = 8.7

DICPCG:  Solving for T, Initial residual = 0.0011087733, Final residual = 8.0386209e-07, No Iterations 3
DICPCG:  Solving for T, Initial residual = 8.0338034e-07, Final residual = 8.0338034e-07, No Iterations 0
DICPCG:  Solving for T, Initial residual = 8.0338034e-07, Final residual = 8.0338034e-07, No Iterations 0
ExecutionTime = 0.5 s  ClockTime = 1 s

runTime.value(): 8.7
snapshotsTime: 8.7
Time = 8.75

DICPCG:  Solving for T, Initial residual = 0.0011041633, Final residual = 7.9995906e-07, No Iterations 3
DICPCG:  Solving for T, Initial residual = 7.9948407e-07, Final residual = 7.9948407e-07, No Iterations 0
DICPCG:  Solving for T, Initial residual = 7.9948407e-07, Final residual = 7.9948407e-07, No Iterations 0
ExecutionTime = 0.5 s  ClockTime = 1 s

Time = 8.8

DICPCG:  Solving for T, Initial residual = 0.0010995902, Final residual = 7.9609081e-07, No Iterations 3
DICPCG:  Solving for T, Initial residual = 7.9562245e-07, Final residual = 7.9562245e-07, No Iterations 0
DICPCG:  Solving for T, Initial residual = 7.9562245e-07, Final residual = 7.9562245e-07, No Iterations 0
ExecutionTime = 0.51 s  ClockTime = 1 s

runTime.value(): 8.8
snapshotsTime: 8.8
Time = 8.85

DICPCG:  Solving for T, Initial residual = 0.0010950532, Final residual = 7.9225076e-07, No Iterations 3
DICPCG:  Solving for T, Initial residual = 7.9178891e-07, Final residual = 7.9178891e-07, No Iterations 0
DICPCG:  Solving for T, Initial residual = 7.9178891e-07, Final residual = 7.9178891e-07, No Iterations 0
ExecutionTime = 0.51 s  ClockTime = 1 s

Time = 8.9

DICPCG:  Solving for T, Initial residual = 0.0010905519, Final residual = 7.8843962e-07, No Iterations 3
DICPCG:  Solving for T, Initial residual = 7.8798416e-07, Final residual = 7.8798416e-07, No Iterations 0
DICPCG:  Solving for T, Initial residual = 7.8798416e-07, Final residual = 7.8798416e-07, No Iterations 0
ExecutionTime = 0.51 s  ClockTime = 1 s

runTime.value(): 8.9
snapshotsTime: 8.9
Time = 8.95

DICPCG:  Solving for T, Initial residual = 0.0010860855, Final residual = 7.8465899e-07, No Iterations 3
DICPCG:  Solving for T, Initial residual = 7.8420982e-07, Final residual = 7.8420982e-07, No Iterations 0
DICPCG:  Solving for T, Initial residual = 7.8420982e-07, Final residual = 7.8420982e-07, No Iterations 0
ExecutionTime = 0.51 s  ClockTime = 1 s

Time = 9

DICPCG:  Solving for T, Initial residual = 0.0010816536, Final residual = 7.8090857e-07, No Iterations 3
DICPCG:  Solving for T, Initial residual = 7.8046556e-07, Final residual = 7.8046556e-07, No Iterations 0
DICPCG:  Solving for T, Initial residual = 7.8046556e-07, Final residual = 7.8046556e-07, No Iterations 0
ExecutionTime = 0.52 s  ClockTime = 1 s

runTime.value(): 9
snapshotsTime: 9
Time = 9.05

DICPCG:  Solving for T, Initial residual = 0.0010772556, Final residual = 7.7719442e-07, No Iterations 3
DICPCG:  Solving for T, Initial residual = 7.7675746e-07, Final residual = 7.7675746e-07, No Iterations 0
DICPCG:  Solving for T, Initial residual = 7.7675746e-07, Final residual = 7.7675746e-07, No Iterations 0
ExecutionTime = 0.52 s  ClockTime = 1 s

Time = 9.1

DICPCG:  Solving for T, Initial residual = 0.0010728909, Final residual = 7.7350563e-07, No Iterations 3
DICPCG:  Solving for T, Initial residual = 7.7307462e-07, Final residual = 7.7307462e-07, No Iterations 0
DICPCG:  Solving for T, Initial residual = 7.7307462e-07, Final residual = 7.7307462e-07, No Iterations 0
ExecutionTime = 0.52 s  ClockTime = 1 s

runTime.value(): 9.1
snapshotsTime: 9.1
Time = 9.15

DICPCG:  Solving for T, Initial residual = 0.001068559, Final residual = 7.6984086e-07, No Iterations 3
DICPCG:  Solving for T, Initial residual = 7.6941569e-07, Final residual = 7.6941569e-07, No Iterations 0
DICPCG:  Solving for T, Initial residual = 7.6941569e-07, Final residual = 7.6941569e-07, No Iterations 0
ExecutionTime = 0.52 s  ClockTime = 1 s

Time = 9.2

DICPCG:  Solving for T, Initial residual = 0.0010642594, Final residual = 7.6620134e-07, No Iterations 3
DICPCG:  Solving for T, Initial residual = 7.6578191e-07, Final residual = 7.6578191e-07, No Iterations 0
DICPCG:  Solving for T, Initial residual = 7.6578191e-07, Final residual = 7.6578191e-07, No Iterations 0
ExecutionTime = 0.52 s  ClockTime = 1 s

runTime.value(): 9.2
snapshotsTime: 9.2
Time = 9.25

DICPCG:  Solving for T, Initial residual = 0.0010599917, Final residual = 7.6258761e-07, No Iterations 3
DICPCG:  Solving for T, Initial residual = 7.6217382e-07, Final residual = 7.6217382e-07, No Iterations 0
DICPCG:  Solving for T, Initial residual = 7.6217382e-07, Final residual = 7.6217382e-07, No Iterations 0
ExecutionTime = 0.53 s  ClockTime = 1 s

Time = 9.3

DICPCG:  Solving for T, Initial residual = 0.0010557552, Final residual = 7.589966e-07, No Iterations 3
DICPCG:  Solving for T, Initial residual = 7.5858835e-07, Final residual = 7.5858835e-07, No Iterations 0
DICPCG:  Solving for T, Initial residual = 7.5858835e-07, Final residual = 7.5858835e-07, No Iterations 0
ExecutionTime = 0.53 s  ClockTime = 1 s

runTime.value(): 9.3
snapshotsTime: 9.3
Time = 9.35

DICPCG:  Solving for T, Initial residual = 0.0010515495, Final residual = 7.5543199e-07, No Iterations 3
DICPCG:  Solving for T, Initial residual = 7.550292e-07, Final residual = 7.550292e-07, No Iterations 0
DICPCG:  Solving for T, Initial residual = 7.550292e-07, Final residual = 7.550292e-07, No Iterations 0
ExecutionTime = 0.53 s  ClockTime = 1 s

Time = 9.4

DICPCG:  Solving for T, Initial residual = 0.0010473741, Final residual = 7.5189701e-07, No Iterations 3
DICPCG:  Solving for T, Initial residual = 7.5149957e-07, Final residual = 7.5149957e-07, No Iterations 0
DICPCG:  Solving for T, Initial residual = 7.5149957e-07, Final residual = 7.5149957e-07, No Iterations 0
ExecutionTime = 0.53 s  ClockTime = 1 s

runTime.value(): 9.4
snapshotsTime: 9.4
Time = 9.45

DICPCG:  Solving for T, Initial residual = 0.0010432287, Final residual = 7.4839305e-07, No Iterations 3
DICPCG:  Solving for T, Initial residual = 7.4800087e-07, Final residual = 7.4800087e-07, No Iterations 0
DICPCG:  Solving for T, Initial residual = 7.4800087e-07, Final residual = 7.4800087e-07, No Iterations 0
ExecutionTime = 0.54 s  ClockTime = 1 s

Time = 9.5

DICPCG:  Solving for T, Initial residual = 0.0010391127, Final residual = 7.4491177e-07, No Iterations 3
DICPCG:  Solving for T, Initial residual = 7.4452475e-07, Final residual = 7.4452475e-07, No Iterations 0
DICPCG:  Solving for T, Initial residual = 7.4452475e-07, Final residual = 7.4452475e-07, No Iterations 0
ExecutionTime = 0.54 s  ClockTime = 1 s

runTime.value(): 9.5
snapshotsTime: 9.5
Time = 9.55

DICPCG:  Solving for T, Initial residual = 0.0010350256, Final residual = 7.4145591e-07, No Iterations 3
DICPCG:  Solving for T, Initial residual = 7.4107398e-07, Final residual = 7.4107398e-07, No Iterations 0
DICPCG:  Solving for T, Initial residual = 7.4107398e-07, Final residual = 7.4107398e-07, No Iterations 0
ExecutionTime = 0.54 s  ClockTime = 1 s

Time = 9.6

DICPCG:  Solving for T, Initial residual = 0.0010309672, Final residual = 7.3802697e-07, No Iterations 3
DICPCG:  Solving for T, Initial residual = 7.3765004e-07, Final residual = 7.3765004e-07, No Iterations 0
DICPCG:  Solving for T, Initial residual = 7.3765004e-07, Final residual = 7.3765004e-07, No Iterations 0
ExecutionTime = 0.54 s  ClockTime = 1 s

runTime.value(): 9.6
snapshotsTime: 9.6
Time = 9.65

DICPCG:  Solving for T, Initial residual = 0.0010269369, Final residual = 7.3462627e-07, No Iterations 3
DICPCG:  Solving for T, Initial residual = 7.3425424e-07, Final residual = 7.3425424e-07, No Iterations 0
DICPCG:  Solving for T, Initial residual = 7.3425424e-07, Final residual = 7.3425424e-07, No Iterations 0
ExecutionTime = 0.54 s  ClockTime = 1 s

Time = 9.7

DICPCG:  Solving for T, Initial residual = 0.0010229344, Final residual = 7.3125387e-07, No Iterations 3
DICPCG:  Solving for T, Initial residual = 7.3088666e-07, Final residual = 7.3088666e-07, No Iterations 0
DICPCG:  Solving for T, Initial residual = 7.3088666e-07, Final residual = 7.3088666e-07, No Iterations 0
ExecutionTime = 0.54 s  ClockTime = 1 s

runTime.value(): 9.7
snapshotsTime: 9.7
Time = 9.75

DICPCG:  Solving for T, Initial residual = 0.0010189591, Final residual = 7.2791504e-07, No Iterations 3
DICPCG:  Solving for T, Initial residual = 7.2755256e-07, Final residual = 7.2755256e-07, No Iterations 0
DICPCG:  Solving for T, Initial residual = 7.2755256e-07, Final residual = 7.2755256e-07, No Iterations 0
ExecutionTime = 0.54 s  ClockTime = 1 s

Time = 9.8

DICPCG:  Solving for T, Initial residual = 0.0010150109, Final residual = 7.2460323e-07, No Iterations 3
DICPCG:  Solving for T, Initial residual = 7.2424541e-07, Final residual = 7.2424541e-07, No Iterations 0
DICPCG:  Solving for T, Initial residual = 7.2424541e-07, Final residual = 7.2424541e-07, No Iterations 0
ExecutionTime = 0.55 s  ClockTime = 1 s

runTime.value(): 9.8
snapshotsTime: 9.8
Time = 9.85

DICPCG:  Solving for T, Initial residual = 0.0010110892, Final residual = 7.2131072e-07, No Iterations 3
DICPCG:  Solving for T, Initial residual = 7.2095748e-07, Final residual = 7.2095748e-07, No Iterations 0
DICPCG:  Solving for T, Initial residual = 7.2095748e-07, Final residual = 7.2095748e-07, No Iterations 0
ExecutionTime = 0.55 s  ClockTime = 1 s

Time = 9.9

DICPCG:  Solving for T, Initial residual = 0.0010071937, Final residual = 7.1803827e-07, No Iterations 3
DICPCG:  Solving for T, Initial residual = 7.1768954e-07, Final residual = 7.1768954e-07, No Iterations 0
DICPCG:  Solving for T, Initial residual = 7.1768954e-07, Final residual = 7.1768954e-07, No Iterations 0
ExecutionTime = 0.55 s  ClockTime = 1 s

runTime.value(): 9.9
snapshotsTime: 9.9
Time = 9.95

DICPCG:  Solving for T, Initial residual = 0.0010033241, Final residual = 7.1479202e-07, No Iterations 3
DICPCG:  Solving for T, Initial residual = 7.1444772e-07, Final residual = 7.1444772e-07, No Iterations 0
DICPCG:  Solving for T, Initial residual = 7.1444772e-07, Final residual = 7.1444772e-07, No Iterations 0
ExecutionTime = 0.56 s  ClockTime = 1 s

Time = 10

DICPCG:  Solving for T, Initial residual = 0.00099944632, Final residual = 7.1154211e-07, No Iterations 3
DICPCG:  Solving for T, Initial residual = 7.1122607e-07, Final residual = 7.1122607e-07, No Iterations 0
DICPCG:  Solving for T, Initial residual = 7.1122607e-07, Final residual = 7.1122607e-07, No Iterations 0
ExecutionTime = 0.59 s  ClockTime = 1 s

runTime.value(): 10
snapshotsTime: 10
Time = 10.05

DICPCG:  Solving for T, Initial residual = 0.0009955928, Final residual = 7.0831553e-07, No Iterations 3
DICPCG:  Solving for T, Initial residual = 7.0800174e-07, Final residual = 7.0800174e-07, No Iterations 0
DICPCG:  Solving for T, Initial residual = 7.0800174e-07, Final residual = 7.0800174e-07, No Iterations 0
ExecutionTime = 0.6 s  ClockTime = 1 s

Time = 10.1

[...]

runTime.value(): 97.55
snapshotsTime: 97.5
Time = 97.6

DICPCG:  Solving for T, Initial residual = 5.9349906e-06, Final residual = 2.9237995e-07, No Iterations 1
DICPCG:  Solving for T, Initial residual = 2.9237966e-07, Final residual = 2.9237966e-07, No Iterations 0
DICPCG:  Solving for T, Initial residual = 2.9237966e-07, Final residual = 2.9237966e-07, No Iterations 0
ExecutionTime = 5.01 s  ClockTime = 5 s

Time = 97.65

DICPCG:  Solving for T, Initial residual = 5.9185356e-06, Final residual = 2.9156893e-07, No Iterations 1
DICPCG:  Solving for T, Initial residual = 2.9156864e-07, Final residual = 2.9156864e-07, No Iterations 0
DICPCG:  Solving for T, Initial residual = 2.9156864e-07, Final residual = 2.9156864e-07, No Iterations 0
ExecutionTime = 5.02 s  ClockTime = 5 s

runTime.value(): 97.65
snapshotsTime: 97.6
Time = 97.7

DICPCG:  Solving for T, Initial residual = 5.9021263e-06, Final residual = 2.9076017e-07, No Iterations 1
DICPCG:  Solving for T, Initial residual = 2.9075988e-07, Final residual = 2.9075988e-07, No Iterations 0
DICPCG:  Solving for T, Initial residual = 2.9075988e-07, Final residual = 2.9075988e-07, No Iterations 0
ExecutionTime = 5.03 s  ClockTime = 5 s

Time = 97.75

DICPCG:  Solving for T, Initial residual = 5.8857625e-06, Final residual = 2.8995366e-07, No Iterations 1
DICPCG:  Solving for T, Initial residual = 2.8995337e-07, Final residual = 2.8995337e-07, No Iterations 0
DICPCG:  Solving for T, Initial residual = 2.8995337e-07, Final residual = 2.8995337e-07, No Iterations 0
ExecutionTime = 5.03 s  ClockTime = 5 s

runTime.value(): 97.75
snapshotsTime: 97.7
Time = 97.8

DICPCG:  Solving for T, Initial residual = 5.8694443e-06, Final residual = 2.8914939e-07, No Iterations 1
DICPCG:  Solving for T, Initial residual = 2.891491e-07, Final residual = 2.891491e-07, No Iterations 0
DICPCG:  Solving for T, Initial residual = 2.891491e-07, Final residual = 2.891491e-07, No Iterations 0
ExecutionTime = 5.03 s  ClockTime = 5 s

Time = 97.85

DICPCG:  Solving for T, Initial residual = 5.8531713e-06, Final residual = 2.8834735e-07, No Iterations 1
DICPCG:  Solving for T, Initial residual = 2.8834707e-07, Final residual = 2.8834707e-07, No Iterations 0
DICPCG:  Solving for T, Initial residual = 2.8834707e-07, Final residual = 2.8834707e-07, No Iterations 0
ExecutionTime = 5.03 s  ClockTime = 5 s

runTime.value(): 97.85
snapshotsTime: 97.8
Time = 97.9

DICPCG:  Solving for T, Initial residual = 5.8369436e-06, Final residual = 2.8754755e-07, No Iterations 1
DICPCG:  Solving for T, Initial residual = 2.8754727e-07, Final residual = 2.8754727e-07, No Iterations 0
DICPCG:  Solving for T, Initial residual = 2.8754727e-07, Final residual = 2.8754727e-07, No Iterations 0
ExecutionTime = 5.03 s  ClockTime = 5 s

Time = 97.95

DICPCG:  Solving for T, Initial residual = 5.8207609e-06, Final residual = 2.8674997e-07, No Iterations 1
DICPCG:  Solving for T, Initial residual = 2.8674969e-07, Final residual = 2.8674969e-07, No Iterations 0
DICPCG:  Solving for T, Initial residual = 2.8674969e-07, Final residual = 2.8674969e-07, No Iterations 0
ExecutionTime = 5.04 s  ClockTime = 5 s

runTime.value(): 97.95
snapshotsTime: 97.9
Time = 98

DICPCG:  Solving for T, Initial residual = 5.8046232e-06, Final residual = 2.859546e-07, No Iterations 1
DICPCG:  Solving for T, Initial residual = 2.8595432e-07, Final residual = 2.8595432e-07, No Iterations 0
DICPCG:  Solving for T, Initial residual = 2.8595432e-07, Final residual = 2.8595432e-07, No Iterations 0
ExecutionTime = 5.04 s  ClockTime = 5 s

Time = 98.05

DICPCG:  Solving for T, Initial residual = 5.7885303e-06, Final residual = 2.8516145e-07, No Iterations 1
DICPCG:  Solving for T, Initial residual = 2.8516117e-07, Final residual = 2.8516117e-07, No Iterations 0
DICPCG:  Solving for T, Initial residual = 2.8516117e-07, Final residual = 2.8516117e-07, No Iterations 0
ExecutionTime = 5.04 s  ClockTime = 5 s

runTime.value(): 98.05
snapshotsTime: 98
Time = 98.1

DICPCG:  Solving for T, Initial residual = 5.7724822e-06, Final residual = 2.843705e-07, No Iterations 1
DICPCG:  Solving for T, Initial residual = 2.8437023e-07, Final residual = 2.8437023e-07, No Iterations 0
DICPCG:  Solving for T, Initial residual = 2.8437023e-07, Final residual = 2.8437023e-07, No Iterations 0
ExecutionTime = 5.04 s  ClockTime = 5 s

Time = 98.15

DICPCG:  Solving for T, Initial residual = 5.7564786e-06, Final residual = 2.8358175e-07, No Iterations 1
DICPCG:  Solving for T, Initial residual = 2.8358148e-07, Final residual = 2.8358148e-07, No Iterations 0
DICPCG:  Solving for T, Initial residual = 2.8358148e-07, Final residual = 2.8358148e-07, No Iterations 0
ExecutionTime = 5.05 s  ClockTime = 5 s

runTime.value(): 98.15
snapshotsTime: 98.1
Time = 98.2

DICPCG:  Solving for T, Initial residual = 5.7405194e-06, Final residual = 2.827952e-07, No Iterations 1
DICPCG:  Solving for T, Initial residual = 2.8279492e-07, Final residual = 2.8279492e-07, No Iterations 0
DICPCG:  Solving for T, Initial residual = 2.8279492e-07, Final residual = 2.8279492e-07, No Iterations 0
ExecutionTime = 5.05 s  ClockTime = 5 s

Time = 98.25

DICPCG:  Solving for T, Initial residual = 5.7246046e-06, Final residual = 2.8201083e-07, No Iterations 1
DICPCG:  Solving for T, Initial residual = 2.8201056e-07, Final residual = 2.8201056e-07, No Iterations 0
DICPCG:  Solving for T, Initial residual = 2.8201056e-07, Final residual = 2.8201056e-07, No Iterations 0
ExecutionTime = 5.05 s  ClockTime = 5 s

runTime.value(): 98.25
snapshotsTime: 98.2
Time = 98.3

DICPCG:  Solving for T, Initial residual = 5.708734e-06, Final residual = 2.8122864e-07, No Iterations 1
DICPCG:  Solving for T, Initial residual = 2.8122837e-07, Final residual = 2.8122837e-07, No Iterations 0
DICPCG:  Solving for T, Initial residual = 2.8122837e-07, Final residual = 2.8122837e-07, No Iterations 0
ExecutionTime = 5.05 s  ClockTime = 5 s

Time = 98.35

DICPCG:  Solving for T, Initial residual = 5.6929074e-06, Final residual = 2.8044862e-07, No Iterations 1
DICPCG:  Solving for T, Initial residual = 2.8044836e-07, Final residual = 2.8044836e-07, No Iterations 0
DICPCG:  Solving for T, Initial residual = 2.8044836e-07, Final residual = 2.8044836e-07, No Iterations 0
ExecutionTime = 5.05 s  ClockTime = 5 s

runTime.value(): 98.35
snapshotsTime: 98.3
Time = 98.4

DICPCG:  Solving for T, Initial residual = 5.6771248e-06, Final residual = 2.7967078e-07, No Iterations 1
DICPCG:  Solving for T, Initial residual = 2.7967051e-07, Final residual = 2.7967051e-07, No Iterations 0
DICPCG:  Solving for T, Initial residual = 2.7967051e-07, Final residual = 2.7967051e-07, No Iterations 0
ExecutionTime = 5.06 s  ClockTime = 5 s

Time = 98.45

DICPCG:  Solving for T, Initial residual = 5.6613861e-06, Final residual = 2.7889509e-07, No Iterations 1
DICPCG:  Solving for T, Initial residual = 2.7889483e-07, Final residual = 2.7889483e-07, No Iterations 0
DICPCG:  Solving for T, Initial residual = 2.7889483e-07, Final residual = 2.7889483e-07, No Iterations 0
ExecutionTime = 5.06 s  ClockTime = 5 s

runTime.value(): 98.45
snapshotsTime: 98.4
Time = 98.5

DICPCG:  Solving for T, Initial residual = 5.6456911e-06, Final residual = 2.7812156e-07, No Iterations 1
DICPCG:  Solving for T, Initial residual = 2.781213e-07, Final residual = 2.781213e-07, No Iterations 0
DICPCG:  Solving for T, Initial residual = 2.781213e-07, Final residual = 2.781213e-07, No Iterations 0
ExecutionTime = 5.07 s  ClockTime = 5 s

Time = 98.55

DICPCG:  Solving for T, Initial residual = 5.6300396e-06, Final residual = 2.7735019e-07, No Iterations 1
DICPCG:  Solving for T, Initial residual = 2.7734992e-07, Final residual = 2.7734992e-07, No Iterations 0
DICPCG:  Solving for T, Initial residual = 2.7734992e-07, Final residual = 2.7734992e-07, No Iterations 0
ExecutionTime = 5.07 s  ClockTime = 5 s

runTime.value(): 98.55
snapshotsTime: 98.5
Time = 98.6

DICPCG:  Solving for T, Initial residual = 5.6144317e-06, Final residual = 2.7658095e-07, No Iterations 1
DICPCG:  Solving for T, Initial residual = 2.7658069e-07, Final residual = 2.7658069e-07, No Iterations 0
DICPCG:  Solving for T, Initial residual = 2.7658069e-07, Final residual = 2.7658069e-07, No Iterations 0
ExecutionTime = 5.07 s  ClockTime = 5 s

Time = 98.65

DICPCG:  Solving for T, Initial residual = 5.598867e-06, Final residual = 2.7581386e-07, No Iterations 1
DICPCG:  Solving for T, Initial residual = 2.758136e-07, Final residual = 2.758136e-07, No Iterations 0
DICPCG:  Solving for T, Initial residual = 2.758136e-07, Final residual = 2.758136e-07, No Iterations 0
ExecutionTime = 5.07 s  ClockTime = 5 s

runTime.value(): 98.65
snapshotsTime: 98.6
Time = 98.7

DICPCG:  Solving for T, Initial residual = 5.5833456e-06, Final residual = 2.7504889e-07, No Iterations 1
DICPCG:  Solving for T, Initial residual = 2.7504864e-07, Final residual = 2.7504864e-07, No Iterations 0
DICPCG:  Solving for T, Initial residual = 2.7504864e-07, Final residual = 2.7504864e-07, No Iterations 0
ExecutionTime = 5.08 s  ClockTime = 5 s

Time = 98.75

DICPCG:  Solving for T, Initial residual = 5.5678674e-06, Final residual = 2.7428606e-07, No Iterations 1
DICPCG:  Solving for T, Initial residual = 2.742858e-07, Final residual = 2.742858e-07, No Iterations 0
DICPCG:  Solving for T, Initial residual = 2.742858e-07, Final residual = 2.742858e-07, No Iterations 0
ExecutionTime = 5.08 s  ClockTime = 5 s

runTime.value(): 98.75
snapshotsTime: 98.7
Time = 98.8

DICPCG:  Solving for T, Initial residual = 5.5524321e-06, Final residual = 2.7352534e-07, No Iterations 1
DICPCG:  Solving for T, Initial residual = 2.7352508e-07, Final residual = 2.7352508e-07, No Iterations 0
DICPCG:  Solving for T, Initial residual = 2.7352508e-07, Final residual = 2.7352508e-07, No Iterations 0
ExecutionTime = 5.08 s  ClockTime = 5 s

Time = 98.85

DICPCG:  Solving for T, Initial residual = 5.5370396e-06, Final residual = 2.7276674e-07, No Iterations 1
DICPCG:  Solving for T, Initial residual = 2.7276648e-07, Final residual = 2.7276648e-07, No Iterations 0
DICPCG:  Solving for T, Initial residual = 2.7276648e-07, Final residual = 2.7276648e-07, No Iterations 0
ExecutionTime = 5.08 s  ClockTime = 5 s

runTime.value(): 98.85
snapshotsTime: 98.8
Time = 98.9

DICPCG:  Solving for T, Initial residual = 5.5216899e-06, Final residual = 2.7201024e-07, No Iterations 1
DICPCG:  Solving for T, Initial residual = 2.7200999e-07, Final residual = 2.7200999e-07, No Iterations 0
DICPCG:  Solving for T, Initial residual = 2.7200999e-07, Final residual = 2.7200999e-07, No Iterations 0
ExecutionTime = 5.08 s  ClockTime = 5 s

Time = 98.95

DICPCG:  Solving for T, Initial residual = 5.5063829e-06, Final residual = 2.7125585e-07, No Iterations 1
DICPCG:  Solving for T, Initial residual = 2.712556e-07, Final residual = 2.712556e-07, No Iterations 0
DICPCG:  Solving for T, Initial residual = 2.712556e-07, Final residual = 2.712556e-07, No Iterations 0
ExecutionTime = 5.08 s  ClockTime = 5 s

runTime.value(): 98.95
snapshotsTime: 98.9
Time = 99

DICPCG:  Solving for T, Initial residual = 5.4911183e-06, Final residual = 2.7050356e-07, No Iterations 1
DICPCG:  Solving for T, Initial residual = 2.7050331e-07, Final residual = 2.7050331e-07, No Iterations 0
DICPCG:  Solving for T, Initial residual = 2.7050331e-07, Final residual = 2.7050331e-07, No Iterations 0
ExecutionTime = 5.08 s  ClockTime = 5 s

Time = 99.05

DICPCG:  Solving for T, Initial residual = 5.4758962e-06, Final residual = 2.6975335e-07, No Iterations 1
DICPCG:  Solving for T, Initial residual = 2.6975311e-07, Final residual = 2.6975311e-07, No Iterations 0
DICPCG:  Solving for T, Initial residual = 2.6975311e-07, Final residual = 2.6975311e-07, No Iterations 0
ExecutionTime = 5.09 s  ClockTime = 5 s

runTime.value(): 99.05
snapshotsTime: 99
Time = 99.1

DICPCG:  Solving for T, Initial residual = 5.4607163e-06, Final residual = 2.6900523e-07, No Iterations 1
DICPCG:  Solving for T, Initial residual = 2.6900499e-07, Final residual = 2.6900499e-07, No Iterations 0
DICPCG:  Solving for T, Initial residual = 2.6900499e-07, Final residual = 2.6900499e-07, No Iterations 0
ExecutionTime = 5.09 s  ClockTime = 5 s

Time = 99.15

DICPCG:  Solving for T, Initial residual = 5.4455786e-06, Final residual = 2.682592e-07, No Iterations 1
DICPCG:  Solving for T, Initial residual = 2.6825895e-07, Final residual = 2.6825895e-07, No Iterations 0
DICPCG:  Solving for T, Initial residual = 2.6825895e-07, Final residual = 2.6825895e-07, No Iterations 0
ExecutionTime = 5.09 s  ClockTime = 5 s

runTime.value(): 99.15
snapshotsTime: 99.1
Time = 99.2

DICPCG:  Solving for T, Initial residual = 5.4304829e-06, Final residual = 2.6751523e-07, No Iterations 1
DICPCG:  Solving for T, Initial residual = 2.6751499e-07, Final residual = 2.6751499e-07, No Iterations 0
DICPCG:  Solving for T, Initial residual = 2.6751499e-07, Final residual = 2.6751499e-07, No Iterations 0
ExecutionTime = 5.09 s  ClockTime = 5 s

Time = 99.25

DICPCG:  Solving for T, Initial residual = 5.4154291e-06, Final residual = 2.6677333e-07, No Iterations 1
DICPCG:  Solving for T, Initial residual = 2.6677309e-07, Final residual = 2.6677309e-07, No Iterations 0
DICPCG:  Solving for T, Initial residual = 2.6677309e-07, Final residual = 2.6677309e-07, No Iterations 0
ExecutionTime = 5.1 s  ClockTime = 5 s

runTime.value(): 99.25
snapshotsTime: 99.2
Time = 99.3

DICPCG:  Solving for T, Initial residual = 5.4004171e-06, Final residual = 2.6603349e-07, No Iterations 1
DICPCG:  Solving for T, Initial residual = 2.6603325e-07, Final residual = 2.6603325e-07, No Iterations 0
DICPCG:  Solving for T, Initial residual = 2.6603325e-07, Final residual = 2.6603325e-07, No Iterations 0
ExecutionTime = 5.1 s  ClockTime = 5 s

Time = 99.35

DICPCG:  Solving for T, Initial residual = 5.3854469e-06, Final residual = 2.6529571e-07, No Iterations 1
DICPCG:  Solving for T, Initial residual = 2.6529547e-07, Final residual = 2.6529547e-07, No Iterations 0
DICPCG:  Solving for T, Initial residual = 2.6529547e-07, Final residual = 2.6529547e-07, No Iterations 0
ExecutionTime = 5.1 s  ClockTime = 5 s

runTime.value(): 99.35
snapshotsTime: 99.3
Time = 99.4

DICPCG:  Solving for T, Initial residual = 5.3705182e-06, Final residual = 2.6455998e-07, No Iterations 1
DICPCG:  Solving for T, Initial residual = 2.6455975e-07, Final residual = 2.6455975e-07, No Iterations 0
DICPCG:  Solving for T, Initial residual = 2.6455975e-07, Final residual = 2.6455975e-07, No Iterations 0
ExecutionTime = 5.1 s  ClockTime = 5 s

Time = 99.45

DICPCG:  Solving for T, Initial residual = 5.3556309e-06, Final residual = 2.638263e-07, No Iterations 1
DICPCG:  Solving for T, Initial residual = 2.6382606e-07, Final residual = 2.6382606e-07, No Iterations 0
DICPCG:  Solving for T, Initial residual = 2.6382606e-07, Final residual = 2.6382606e-07, No Iterations 0
ExecutionTime = 5.1 s  ClockTime = 5 s

runTime.value(): 99.45
snapshotsTime: 99.4
Time = 99.5

DICPCG:  Solving for T, Initial residual = 5.340785e-06, Final residual = 2.6309465e-07, No Iterations 1
DICPCG:  Solving for T, Initial residual = 2.6309442e-07, Final residual = 2.6309442e-07, No Iterations 0
DICPCG:  Solving for T, Initial residual = 2.6309442e-07, Final residual = 2.6309442e-07, No Iterations 0
ExecutionTime = 5.1 s  ClockTime = 5 s

Time = 99.55

DICPCG:  Solving for T, Initial residual = 5.3259803e-06, Final residual = 2.6236504e-07, No Iterations 1
DICPCG:  Solving for T, Initial residual = 2.6236481e-07, Final residual = 2.6236481e-07, No Iterations 0
DICPCG:  Solving for T, Initial residual = 2.6236481e-07, Final residual = 2.6236481e-07, No Iterations 0
ExecutionTime = 5.1 s  ClockTime = 5 s

runTime.value(): 99.55
snapshotsTime: 99.5
Time = 99.6

DICPCG:  Solving for T, Initial residual = 5.3112167e-06, Final residual = 2.6163745e-07, No Iterations 1
DICPCG:  Solving for T, Initial residual = 2.6163722e-07, Final residual = 2.6163722e-07, No Iterations 0
DICPCG:  Solving for T, Initial residual = 2.6163722e-07, Final residual = 2.6163722e-07, No Iterations 0
ExecutionTime = 5.11 s  ClockTime = 5 s

Time = 99.65

DICPCG:  Solving for T, Initial residual = 5.2964941e-06, Final residual = 2.6091189e-07, No Iterations 1
DICPCG:  Solving for T, Initial residual = 2.6091166e-07, Final residual = 2.6091166e-07, No Iterations 0
DICPCG:  Solving for T, Initial residual = 2.6091166e-07, Final residual = 2.6091166e-07, No Iterations 0
ExecutionTime = 5.11 s  ClockTime = 5 s

runTime.value(): 99.65
snapshotsTime: 99.6
Time = 99.7

DICPCG:  Solving for T, Initial residual = 5.2818124e-06, Final residual = 2.6018834e-07, No Iterations 1
DICPCG:  Solving for T, Initial residual = 2.6018811e-07, Final residual = 2.6018811e-07, No Iterations 0
DICPCG:  Solving for T, Initial residual = 2.6018811e-07, Final residual = 2.6018811e-07, No Iterations 0
ExecutionTime = 5.11 s  ClockTime = 5 s

Time = 99.75

DICPCG:  Solving for T, Initial residual = 5.2671715e-06, Final residual = 2.5946681e-07, No Iterations 1
DICPCG:  Solving for T, Initial residual = 2.5946658e-07, Final residual = 2.5946658e-07, No Iterations 0
DICPCG:  Solving for T, Initial residual = 2.5946658e-07, Final residual = 2.5946658e-07, No Iterations 0
ExecutionTime = 5.11 s  ClockTime = 5 s

runTime.value(): 99.75
snapshotsTime: 99.7
Time = 99.8

DICPCG:  Solving for T, Initial residual = 5.2525712e-06, Final residual = 2.5874728e-07, No Iterations 1
DICPCG:  Solving for T, Initial residual = 2.5874705e-07, Final residual = 2.5874705e-07, No Iterations 0
DICPCG:  Solving for T, Initial residual = 2.5874705e-07, Final residual = 2.5874705e-07, No Iterations 0
ExecutionTime = 5.11 s  ClockTime = 5 s

Time = 99.85

DICPCG:  Solving for T, Initial residual = 5.2380115e-06, Final residual = 2.5802974e-07, No Iterations 1
DICPCG:  Solving for T, Initial residual = 2.5802952e-07, Final residual = 2.5802952e-07, No Iterations 0
DICPCG:  Solving for T, Initial residual = 2.5802952e-07, Final residual = 2.5802952e-07, No Iterations 0
ExecutionTime = 5.12 s  ClockTime = 5 s

runTime.value(): 99.85
snapshotsTime: 99.8
Time = 99.9

DICPCG:  Solving for T, Initial residual = 5.2234922e-06, Final residual = 2.5731421e-07, No Iterations 1
DICPCG:  Solving for T, Initial residual = 2.5731398e-07, Final residual = 2.5731398e-07, No Iterations 0
DICPCG:  Solving for T, Initial residual = 2.5731398e-07, Final residual = 2.5731398e-07, No Iterations 0
ExecutionTime = 5.12 s  ClockTime = 5 s

Time = 99.95

DICPCG:  Solving for T, Initial residual = 5.2090132e-06, Final residual = 2.5660066e-07, No Iterations 1
DICPCG:  Solving for T, Initial residual = 2.5660043e-07, Final residual = 2.5660043e-07, No Iterations 0
DICPCG:  Solving for T, Initial residual = 2.5660043e-07, Final residual = 2.5660043e-07, No Iterations 0
ExecutionTime = 5.12 s  ClockTime = 5 s

runTime.value(): 99.95
snapshotsTime: 99.9
Time = 100

DICPCG:  Solving for T, Initial residual = 5.1945744e-06, Final residual = 2.5588909e-07, No Iterations 1
DICPCG:  Solving for T, Initial residual = 2.5588887e-07, Final residual = 2.5588887e-07, No Iterations 0
DICPCG:  Solving for T, Initial residual = 2.5588887e-07, Final residual = 2.5588887e-07, No Iterations 0
ExecutionTime = 5.16 s  ClockTime = 5 s

End

snapshots number is: 1000
snapshotsTime is: 100
--> FOAM Warning : 
    From Foam::entry* Foam::dictionary::add(Foam::entry*, bool)
    in file db/dictionary/dictionary.C at line 777
    Reading "/home/ruan/Desktop/Shenhui_ruan/OpenFOAM/OpenFOAMsourcecode/laplacianFoamROM_LandNl/svdtest/system/svdDict" at line 19 to 29
    Attempt to add entry snapshotsNum which already exists in dictionary "/home/ruan/Desktop/Shenhui_ruan/OpenFOAM/OpenFOAMsourcecode/laplacianFoamROM_LandNl/svdtest/system/svdDict"
write svd data

write Snapshot Matrix: (4000 1000)
write spatial mode Matrix: (4000 1000)
write temporal coefficient Matrix: (1000 1000)
write eigenvalue: 1000
laplacian of modes Matrix: (4000 15)
