/*---------------------------------------------------------------------------*\
| =========                 |                                                 |
| \\      /  F ield         | OpenFOAM: The Open Source CFD Toolbox           |
|  \\    /   O peration     | Version:  v2106                                 |
|   \\  /    A nd           | Website:  www.openfoam.com                      |
|    \\/     M anipulation  |                                                 |
\*---------------------------------------------------------------------------*/
Build  : _c15bfde3cb-20210624 OPENFOAM=2106
Arch   : "LSB;label=32;scalar=64"
Exec   : laplacianFoamLandNl
Date   : Sep 22 2022
Time   : 15:27:57
Host   : ites-fps-ruanLX
PID    : 50149
I/O    : uncollated
Case   : /home/ruan/Desktop/Shenhui_ruan/OpenFOAM/OpenFOAMsourcecode/laplacianFoamROM_LandNl/svdtest
nProcs : 1
trapFpe: Floating point exception trapping enabled (FOAM_SIGFPE).
fileModificationChecking : Monitoring run-time modified files using timeStampMaster (fileModificationSkew 5, maxFileModificationPolls 20)
allowSystemOperations : Allowing user-supplied system call operations

// * * * * * * * * * * * * * * * * * * * * * * * * * * * * * * * * * * * * * //
Create time

Create mesh for time = 0


SIMPLE: no convergence criteria found. Calculations will run for 100 steps.

Reading field T

Reading diffusivity DT

DTT1: 1e-06
DTT2: 0.001
No finite volume options present

Calculating temperature distribution

snapshots extract
time Interval of snapshots is: 0.1

Time = 0.05

DICPCG:  Solving for T, Initial residual = 1, Final residual = 9.6019463e-07, No Iterations 9
DICPCG:  Solving for T, Initial residual = 3.4593238e-07, Final residual = 3.4593238e-07, No Iterations 0
DICPCG:  Solving for T, Initial residual = 3.4593238e-07, Final residual = 3.4593238e-07, No Iterations 0
ExecutionTime = 0.05 s  ClockTime = 0 s

Time = 0.1

DICPCG:  Solving for T, Initial residual = 0.13458443, Final residual = 1.9065239e-07, No Iterations 7
DICPCG:  Solving for T, Initial residual = 1.54595e-07, Final residual = 1.54595e-07, No Iterations 0
DICPCG:  Solving for T, Initial residual = 1.54595e-07, Final residual = 1.54595e-07, No Iterations 0
ExecutionTime = 0.05 s  ClockTime = 0 s

runTime.value(): 0.1
snapshotsTime: 0.1
Time = 0.15

DICPCG:  Solving for T, Initial residual = 0.051449925, Final residual = 5.427603e-07, No Iterations 6
DICPCG:  Solving for T, Initial residual = 4.9401579e-07, Final residual = 4.9401579e-07, No Iterations 0
DICPCG:  Solving for T, Initial residual = 4.9401579e-07, Final residual = 4.9401579e-07, No Iterations 0
ExecutionTime = 0.06 s  ClockTime = 0 s

Time = 0.2

DICPCG:  Solving for T, Initial residual = 0.030312352, Final residual = 3.2302866e-07, No Iterations 6
DICPCG:  Solving for T, Initial residual = 3.0473215e-07, Final residual = 3.0473215e-07, No Iterations 0
DICPCG:  Solving for T, Initial residual = 3.0473215e-07, Final residual = 3.0473215e-07, No Iterations 0
ExecutionTime = 0.06 s  ClockTime = 0 s

runTime.value(): 0.2
snapshotsTime: 0.2
Time = 0.25

DICPCG:  Solving for T, Initial residual = 0.02221938, Final residual = 2.206023e-07, No Iterations 6
DICPCG:  Solving for T, Initial residual = 2.1111537e-07, Final residual = 2.1111537e-07, No Iterations 0
DICPCG:  Solving for T, Initial residual = 2.1111537e-07, Final residual = 2.1111537e-07, No Iterations 0
ExecutionTime = 0.06 s  ClockTime = 0 s

Time = 0.3

DICPCG:  Solving for T, Initial residual = 0.018041899, Final residual = 1.6890486e-07, No Iterations 6
DICPCG:  Solving for T, Initial residual = 1.6320801e-07, Final residual = 1.6320801e-07, No Iterations 0
DICPCG:  Solving for T, Initial residual = 1.6320801e-07, Final residual = 1.6320801e-07, No Iterations 0
ExecutionTime = 0.07 s  ClockTime = 0 s

Time = 0.35

DICPCG:  Solving for T, Initial residual = 0.015429305, Final residual = 9.236564e-07, No Iterations 5
DICPCG:  Solving for T, Initial residual = 8.9619162e-07, Final residual = 8.9619162e-07, No Iterations 0
DICPCG:  Solving for T, Initial residual = 8.9619162e-07, Final residual = 8.9619162e-07, No Iterations 0
ExecutionTime = 0.07 s  ClockTime = 0 s

runTime.value(): 0.35
snapshotsTime: 0.3
Time = 0.4

DICPCG:  Solving for T, Initial residual = 0.013584388, Final residual = 7.7761559e-07, No Iterations 5
DICPCG:  Solving for T, Initial residual = 7.5780662e-07, Final residual = 7.5780662e-07, No Iterations 0
DICPCG:  Solving for T, Initial residual = 7.5780662e-07, Final residual = 7.5780662e-07, No Iterations 0
ExecutionTime = 0.07 s  ClockTime = 0 s

Time = 0.45

DICPCG:  Solving for T, Initial residual = 0.012203102, Final residual = 6.7002184e-07, No Iterations 5
DICPCG:  Solving for T, Initial residual = 6.5542354e-07, Final residual = 6.5542354e-07, No Iterations 0
DICPCG:  Solving for T, Initial residual = 6.5542354e-07, Final residual = 6.5542354e-07, No Iterations 0
ExecutionTime = 0.08 s  ClockTime = 0 s

runTime.value(): 0.45
snapshotsTime: 0.4
Time = 0.5

DICPCG:  Solving for T, Initial residual = 0.011114533, Final residual = 5.8796006e-07, No Iterations 5
DICPCG:  Solving for T, Initial residual = 5.76001e-07, Final residual = 5.76001e-07, No Iterations 0
DICPCG:  Solving for T, Initial residual = 5.76001e-07, Final residual = 5.76001e-07, No Iterations 0
ExecutionTime = 0.08 s  ClockTime = 0 s

Time = 0.55

DICPCG:  Solving for T, Initial residual = 0.010225432, Final residual = 5.2415904e-07, No Iterations 5
DICPCG:  Solving for T, Initial residual = 5.145368e-07, Final residual = 5.145368e-07, No Iterations 0
DICPCG:  Solving for T, Initial residual = 5.145368e-07, Final residual = 5.145368e-07, No Iterations 0
ExecutionTime = 0.08 s  ClockTime = 0 s

runTime.value(): 0.55
snapshotsTime: 0.5
Time = 0.6

DICPCG:  Solving for T, Initial residual = 0.0094918679, Final residual = 4.7463114e-07, No Iterations 5
DICPCG:  Solving for T, Initial residual = 4.6676023e-07, Final residual = 4.6676023e-07, No Iterations 0
DICPCG:  Solving for T, Initial residual = 4.6676023e-07, Final residual = 4.6676023e-07, No Iterations 0
ExecutionTime = 0.09 s  ClockTime = 0 s

runTime.value(): 0.6
snapshotsTime: 0.6
Time = 0.65

DICPCG:  Solving for T, Initial residual = 0.008876504, Final residual = 4.3417458e-07, No Iterations 5
DICPCG:  Solving for T, Initial residual = 4.2762531e-07, Final residual = 4.2762531e-07, No Iterations 0
DICPCG:  Solving for T, Initial residual = 4.2762531e-07, Final residual = 4.2762531e-07, No Iterations 0
ExecutionTime = 0.09 s  ClockTime = 0 s

Time = 0.7

DICPCG:  Solving for T, Initial residual = 0.0083441075, Final residual = 4.0018328e-07, No Iterations 5
DICPCG:  Solving for T, Initial residual = 3.9459001e-07, Final residual = 3.9459001e-07, No Iterations 0
DICPCG:  Solving for T, Initial residual = 3.9459001e-07, Final residual = 3.9459001e-07, No Iterations 0
ExecutionTime = 0.09 s  ClockTime = 0 s

runTime.value(): 0.7
snapshotsTime: 0.7
Time = 0.75

DICPCG:  Solving for T, Initial residual = 0.0078801355, Final residual = 3.7164902e-07, No Iterations 5
DICPCG:  Solving for T, Initial residual = 3.6671564e-07, Final residual = 3.6671564e-07, No Iterations 0
DICPCG:  Solving for T, Initial residual = 3.6671564e-07, Final residual = 3.6671564e-07, No Iterations 0
ExecutionTime = 0.1 s  ClockTime = 0 s

Time = 0.8

DICPCG:  Solving for T, Initial residual = 0.0074724918, Final residual = 3.4748919e-07, No Iterations 5
DICPCG:  Solving for T, Initial residual = 3.4321636e-07, Final residual = 3.4321636e-07, No Iterations 0
DICPCG:  Solving for T, Initial residual = 3.4321636e-07, Final residual = 3.4321636e-07, No Iterations 0
ExecutionTime = 0.1 s  ClockTime = 0 s

runTime.value(): 0.8
snapshotsTime: 0.8
Time = 0.85

DICPCG:  Solving for T, Initial residual = 0.0071137373, Final residual = 3.2662914e-07, No Iterations 5
DICPCG:  Solving for T, Initial residual = 3.2289428e-07, Final residual = 3.2289428e-07, No Iterations 0
DICPCG:  Solving for T, Initial residual = 3.2289428e-07, Final residual = 3.2289428e-07, No Iterations 0
ExecutionTime = 0.1 s  ClockTime = 0 s

Time = 0.9

DICPCG:  Solving for T, Initial residual = 0.0067954507, Final residual = 3.0827569e-07, No Iterations 5
DICPCG:  Solving for T, Initial residual = 3.0498615e-07, Final residual = 3.0498615e-07, No Iterations 0
DICPCG:  Solving for T, Initial residual = 3.0498615e-07, Final residual = 3.0498615e-07, No Iterations 0
ExecutionTime = 0.11 s  ClockTime = 0 s

runTime.value(): 0.9
snapshotsTime: 0.9
Time = 0.95

DICPCG:  Solving for T, Initial residual = 0.006509307, Final residual = 2.920179e-07, No Iterations 5
DICPCG:  Solving for T, Initial residual = 2.8917788e-07, Final residual = 2.8917788e-07, No Iterations 0
DICPCG:  Solving for T, Initial residual = 2.8917788e-07, Final residual = 2.8917788e-07, No Iterations 0
ExecutionTime = 0.11 s  ClockTime = 0 s

Time = 1

DICPCG:  Solving for T, Initial residual = 0.0062493623, Final residual = 2.7775636e-07, No Iterations 5
DICPCG:  Solving for T, Initial residual = 2.7506033e-07, Final residual = 2.7506033e-07, No Iterations 0
DICPCG:  Solving for T, Initial residual = 2.7506033e-07, Final residual = 2.7506033e-07, No Iterations 0
ExecutionTime = 0.11 s  ClockTime = 0 s

runTime.value(): 1
snapshotsTime: 1
Time = 1.05

DICPCG:  Solving for T, Initial residual = 0.0060104579, Final residual = 2.6501673e-07, No Iterations 5
DICPCG:  Solving for T, Initial residual = 2.62581e-07, Final residual = 2.62581e-07, No Iterations 0
DICPCG:  Solving for T, Initial residual = 2.62581e-07, Final residual = 2.62581e-07, No Iterations 0
ExecutionTime = 0.11 s  ClockTime = 0 s

Time = 1.1

DICPCG:  Solving for T, Initial residual = 0.0057931044, Final residual = 2.534595e-07, No Iterations 5
DICPCG:  Solving for T, Initial residual = 2.5125898e-07, Final residual = 2.5125898e-07, No Iterations 0
DICPCG:  Solving for T, Initial residual = 2.5125898e-07, Final residual = 2.5125898e-07, No Iterations 0
ExecutionTime = 0.12 s  ClockTime = 0 s

runTime.value(): 1.1
snapshotsTime: 1.1
Time = 1.15

DICPCG:  Solving for T, Initial residual = 0.0055946909, Final residual = 2.4300064e-07, No Iterations 5
DICPCG:  Solving for T, Initial residual = 2.4100351e-07, Final residual = 2.4100351e-07, No Iterations 0
DICPCG:  Solving for T, Initial residual = 2.4100351e-07, Final residual = 2.4100351e-07, No Iterations 0
ExecutionTime = 0.12 s  ClockTime = 0 s

Time = 1.2

DICPCG:  Solving for T, Initial residual = 0.0054128117, Final residual = 2.3345449e-07, No Iterations 5
DICPCG:  Solving for T, Initial residual = 2.316346e-07, Final residual = 2.316346e-07, No Iterations 0
DICPCG:  Solving for T, Initial residual = 2.316346e-07, Final residual = 2.316346e-07, No Iterations 0
ExecutionTime = 0.12 s  ClockTime = 0 s

runTime.value(): 1.2
snapshotsTime: 1.2
Time = 1.25

DICPCG:  Solving for T, Initial residual = 0.0052454529, Final residual = 2.2488003e-07, No Iterations 5
DICPCG:  Solving for T, Initial residual = 2.2321416e-07, Final residual = 2.2321416e-07, No Iterations 0
DICPCG:  Solving for T, Initial residual = 2.2321416e-07, Final residual = 2.2321416e-07, No Iterations 0
ExecutionTime = 0.12 s  ClockTime = 0 s

Time = 1.3

DICPCG:  Solving for T, Initial residual = 0.0050906556, Final residual = 2.1707965e-07, No Iterations 5
DICPCG:  Solving for T, Initial residual = 2.1555988e-07, Final residual = 2.1555988e-07, No Iterations 0
DICPCG:  Solving for T, Initial residual = 2.1555988e-07, Final residual = 2.1555988e-07, No Iterations 0
ExecutionTime = 0.13 s  ClockTime = 0 s

runTime.value(): 1.3
snapshotsTime: 1.3
Time = 1.35

DICPCG:  Solving for T, Initial residual = 0.0049451358, Final residual = 2.0982007e-07, No Iterations 5
DICPCG:  Solving for T, Initial residual = 2.0840084e-07, Final residual = 2.0840084e-07, No Iterations 0
DICPCG:  Solving for T, Initial residual = 2.0840084e-07, Final residual = 2.0840084e-07, No Iterations 0
ExecutionTime = 0.13 s  ClockTime = 0 s

Time = 1.4

DICPCG:  Solving for T, Initial residual = 0.0048085722, Final residual = 2.030618e-07, No Iterations 5
DICPCG:  Solving for T, Initial residual = 2.0171215e-07, Final residual = 2.0171215e-07, No Iterations 0
DICPCG:  Solving for T, Initial residual = 2.0171215e-07, Final residual = 2.0171215e-07, No Iterations 0
ExecutionTime = 0.13 s  ClockTime = 0 s

runTime.value(): 1.4
snapshotsTime: 1.4
Time = 1.45

DICPCG:  Solving for T, Initial residual = 0.0046804808, Final residual = 1.9677447e-07, No Iterations 5
DICPCG:  Solving for T, Initial residual = 1.9552346e-07, Final residual = 1.9552346e-07, No Iterations 0
DICPCG:  Solving for T, Initial residual = 1.9552346e-07, Final residual = 1.9552346e-07, No Iterations 0
ExecutionTime = 0.13 s  ClockTime = 0 s

Time = 1.5

DICPCG:  Solving for T, Initial residual = 0.0045608755, Final residual = 1.9094902e-07, No Iterations 5
DICPCG:  Solving for T, Initial residual = 1.8978636e-07, Final residual = 1.8978636e-07, No Iterations 0
DICPCG:  Solving for T, Initial residual = 1.8978636e-07, Final residual = 1.8978636e-07, No Iterations 0
ExecutionTime = 0.14 s  ClockTime = 0 s

runTime.value(): 1.5
snapshotsTime: 1.5
Time = 1.55

DICPCG:  Solving for T, Initial residual = 0.0044489289, Final residual = 1.855421e-07, No Iterations 5
DICPCG:  Solving for T, Initial residual = 1.8445882e-07, Final residual = 1.8445882e-07, No Iterations 0
DICPCG:  Solving for T, Initial residual = 1.8445882e-07, Final residual = 1.8445882e-07, No Iterations 0
ExecutionTime = 0.14 s  ClockTime = 0 s

Time = 1.6

DICPCG:  Solving for T, Initial residual = 0.0043439179, Final residual = 1.8051246e-07, No Iterations 5
DICPCG:  Solving for T, Initial residual = 1.7950075e-07, Final residual = 1.7950075e-07, No Iterations 0
DICPCG:  Solving for T, Initial residual = 1.7950075e-07, Final residual = 1.7950075e-07, No Iterations 0
ExecutionTime = 0.14 s  ClockTime = 0 s

runTime.value(): 1.6
snapshotsTime: 1.6
Time = 1.65

DICPCG:  Solving for T, Initial residual = 0.0042452076, Final residual = 1.7580247e-07, No Iterations 5
DICPCG:  Solving for T, Initial residual = 1.7485559e-07, Final residual = 1.7485559e-07, No Iterations 0
DICPCG:  Solving for T, Initial residual = 1.7485559e-07, Final residual = 1.7485559e-07, No Iterations 0
ExecutionTime = 0.14 s  ClockTime = 0 s

Time = 1.7

DICPCG:  Solving for T, Initial residual = 0.0041522385, Final residual = 1.7137074e-07, No Iterations 5
DICPCG:  Solving for T, Initial residual = 1.7048283e-07, Final residual = 1.7048283e-07, No Iterations 0
DICPCG:  Solving for T, Initial residual = 1.7048283e-07, Final residual = 1.7048283e-07, No Iterations 0
ExecutionTime = 0.15 s  ClockTime = 0 s

runTime.value(): 1.7
snapshotsTime: 1.7
Time = 1.75

DICPCG:  Solving for T, Initial residual = 0.0040645154, Final residual = 1.6721147e-07, No Iterations 5
DICPCG:  Solving for T, Initial residual = 1.6637724e-07, Final residual = 1.6637724e-07, No Iterations 0
DICPCG:  Solving for T, Initial residual = 1.6637724e-07, Final residual = 1.6637724e-07, No Iterations 0
ExecutionTime = 0.15 s  ClockTime = 0 s

Time = 1.8

DICPCG:  Solving for T, Initial residual = 0.0039806829, Final residual = 1.6328006e-07, No Iterations 5
DICPCG:  Solving for T, Initial residual = 1.6252139e-07, Final residual = 1.6252139e-07, No Iterations 0
DICPCG:  Solving for T, Initial residual = 1.6252139e-07, Final residual = 1.6252139e-07, No Iterations 0
ExecutionTime = 0.15 s  ClockTime = 0 s

runTime.value(): 1.8
snapshotsTime: 1.8
Time = 1.85

DICPCG:  Solving for T, Initial residual = 0.0039007742, Final residual = 1.5954261e-07, No Iterations 5
DICPCG:  Solving for T, Initial residual = 1.5878066e-07, Final residual = 1.5878066e-07, No Iterations 0
DICPCG:  Solving for T, Initial residual = 1.5878066e-07, Final residual = 1.5878066e-07, No Iterations 0
ExecutionTime = 0.15 s  ClockTime = 0 s

Time = 1.9

DICPCG:  Solving for T, Initial residual = 0.0038238733, Final residual = 9.8120209e-07, No Iterations 4
DICPCG:  Solving for T, Initial residual = 9.7667809e-07, Final residual = 9.7667809e-07, No Iterations 0
DICPCG:  Solving for T, Initial residual = 9.7667809e-07, Final residual = 9.7667809e-07, No Iterations 0
ExecutionTime = 0.15 s  ClockTime = 0 s

runTime.value(): 1.9
snapshotsTime: 1.9
Time = 1.95

DICPCG:  Solving for T, Initial residual = 0.003750878, Final residual = 9.591615e-07, No Iterations 4
DICPCG:  Solving for T, Initial residual = 9.5488899e-07, Final residual = 9.5488899e-07, No Iterations 0
DICPCG:  Solving for T, Initial residual = 9.5488899e-07, Final residual = 9.5488899e-07, No Iterations 0
ExecutionTime = 0.16 s  ClockTime = 0 s

Time = 2

DICPCG:  Solving for T, Initial residual = 0.003681483, Final residual = 9.3818704e-07, No Iterations 4
DICPCG:  Solving for T, Initial residual = 9.3414667e-07, Final residual = 9.3414667e-07, No Iterations 0
DICPCG:  Solving for T, Initial residual = 9.3414667e-07, Final residual = 9.3414667e-07, No Iterations 0
ExecutionTime = 0.16 s  ClockTime = 0 s

runTime.value(): 2
snapshotsTime: 2
Time = 2.05

DICPCG:  Solving for T, Initial residual = 0.0036154268, Final residual = 9.1843091e-07, No Iterations 4
DICPCG:  Solving for T, Initial residual = 9.1460426e-07, Final residual = 9.1460426e-07, No Iterations 0
DICPCG:  Solving for T, Initial residual = 9.1460426e-07, Final residual = 9.1460426e-07, No Iterations 0
ExecutionTime = 0.16 s  ClockTime = 0 s

Time = 2.1

DICPCG:  Solving for T, Initial residual = 0.0035524709, Final residual = 8.995624e-07, No Iterations 4
DICPCG:  Solving for T, Initial residual = 8.9593385e-07, Final residual = 8.9593385e-07, No Iterations 0
DICPCG:  Solving for T, Initial residual = 8.9593385e-07, Final residual = 8.9593385e-07, No Iterations 0
ExecutionTime = 0.16 s  ClockTime = 0 s

runTime.value(): 2.1
snapshotsTime: 2.1
Time = 2.15

DICPCG:  Solving for T, Initial residual = 0.0034923981, Final residual = 8.8156728e-07, No Iterations 4
DICPCG:  Solving for T, Initial residual = 8.7812246e-07, Final residual = 8.7812246e-07, No Iterations 0
DICPCG:  Solving for T, Initial residual = 8.7812246e-07, Final residual = 8.7812246e-07, No Iterations 0
ExecutionTime = 0.16 s  ClockTime = 0 s

Time = 2.2

DICPCG:  Solving for T, Initial residual = 0.003435011, Final residual = 8.6445796e-07, No Iterations 4
DICPCG:  Solving for T, Initial residual = 8.6118357e-07, Final residual = 8.6118357e-07, No Iterations 0
DICPCG:  Solving for T, Initial residual = 8.6118357e-07, Final residual = 8.6118357e-07, No Iterations 0
ExecutionTime = 0.17 s  ClockTime = 0 s

Time = 2.25

DICPCG:  Solving for T, Initial residual = 0.0033801295, Final residual = 8.4816714e-07, No Iterations 4
DICPCG:  Solving for T, Initial residual = 8.450511e-07, Final residual = 8.450511e-07, No Iterations 0
DICPCG:  Solving for T, Initial residual = 8.450511e-07, Final residual = 8.450511e-07, No Iterations 0
ExecutionTime = 0.17 s  ClockTime = 0 s

runTime.value(): 2.25
snapshotsTime: 2.2
Time = 2.3

DICPCG:  Solving for T, Initial residual = 0.0033275893, Final residual = 8.3270215e-07, No Iterations 4
DICPCG:  Solving for T, Initial residual = 8.2973328e-07, Final residual = 8.2973328e-07, No Iterations 0
DICPCG:  Solving for T, Initial residual = 8.2973328e-07, Final residual = 8.2973328e-07, No Iterations 0
ExecutionTime = 0.17 s  ClockTime = 0 s

Time = 2.35

DICPCG:  Solving for T, Initial residual = 0.00327724, Final residual = 8.1794973e-07, No Iterations 4
DICPCG:  Solving for T, Initial residual = 8.15118e-07, Final residual = 8.15118e-07, No Iterations 0
DICPCG:  Solving for T, Initial residual = 8.15118e-07, Final residual = 8.15118e-07, No Iterations 0
ExecutionTime = 0.17 s  ClockTime = 0 s

runTime.value(): 2.35
snapshotsTime: 2.3
Time = 2.4

DICPCG:  Solving for T, Initial residual = 0.003228603, Final residual = 8.0374266e-07, No Iterations 4
DICPCG:  Solving for T, Initial residual = 8.0112384e-07, Final residual = 8.0112384e-07, No Iterations 0
DICPCG:  Solving for T, Initial residual = 8.0112384e-07, Final residual = 8.0112384e-07, No Iterations 0
ExecutionTime = 0.17 s  ClockTime = 0 s

Time = 2.45

DICPCG:  Solving for T, Initial residual = 0.0031814964, Final residual = 7.9003612e-07, No Iterations 4
DICPCG:  Solving for T, Initial residual = 7.8743567e-07, Final residual = 7.8743567e-07, No Iterations 0
DICPCG:  Solving for T, Initial residual = 7.8743567e-07, Final residual = 7.8743567e-07, No Iterations 0
ExecutionTime = 0.18 s  ClockTime = 0 s

runTime.value(): 2.45
snapshotsTime: 2.4
Time = 2.5

DICPCG:  Solving for T, Initial residual = 0.0031356683, Final residual = 7.7678149e-07, No Iterations 4
DICPCG:  Solving for T, Initial residual = 7.7425547e-07, Final residual = 7.7425547e-07, No Iterations 0
DICPCG:  Solving for T, Initial residual = 7.7425547e-07, Final residual = 7.7425547e-07, No Iterations 0
ExecutionTime = 0.21 s  ClockTime = 0 s

Time = 2.55

DICPCG:  Solving for T, Initial residual = 0.0030914407, Final residual = 7.6407297e-07, No Iterations 4
DICPCG:  Solving for T, Initial residual = 7.6165628e-07, Final residual = 7.6165628e-07, No Iterations 0
DICPCG:  Solving for T, Initial residual = 7.6165628e-07, Final residual = 7.6165628e-07, No Iterations 0
ExecutionTime = 0.22 s  ClockTime = 0 s

runTime.value(): 2.55
snapshotsTime: 2.5
Time = 2.6

DICPCG:  Solving for T, Initial residual = 0.0030488807, Final residual = 7.5187444e-07, No Iterations 4
DICPCG:  Solving for T, Initial residual = 7.4956042e-07, Final residual = 7.4956042e-07, No Iterations 0
DICPCG:  Solving for T, Initial residual = 7.4956042e-07, Final residual = 7.4956042e-07, No Iterations 0
ExecutionTime = 0.22 s  ClockTime = 0 s

Time = 2.65

DICPCG:  Solving for T, Initial residual = 0.0030078928, Final residual = 7.4010573e-07, No Iterations 4
DICPCG:  Solving for T, Initial residual = 7.3788838e-07, Final residual = 7.3788838e-07, No Iterations 0
DICPCG:  Solving for T, Initial residual = 7.3788838e-07, Final residual = 7.3788838e-07, No Iterations 0
ExecutionTime = 0.22 s  ClockTime = 0 s

runTime.value(): 2.65
snapshotsTime: 2.6
Time = 2.7

DICPCG:  Solving for T, Initial residual = 0.0029683884, Final residual = 7.2872856e-07, No Iterations 4
DICPCG:  Solving for T, Initial residual = 7.2660239e-07, Final residual = 7.2660239e-07, No Iterations 0
DICPCG:  Solving for T, Initial residual = 7.2660239e-07, Final residual = 7.2660239e-07, No Iterations 0
ExecutionTime = 0.22 s  ClockTime = 0 s

Time = 2.75

DICPCG:  Solving for T, Initial residual = 0.0029302854, Final residual = 7.1777137e-07, No Iterations 4
DICPCG:  Solving for T, Initial residual = 7.1573111e-07, Final residual = 7.1573111e-07, No Iterations 0
DICPCG:  Solving for T, Initial residual = 7.1573111e-07, Final residual = 7.1573111e-07, No Iterations 0
ExecutionTime = 0.23 s  ClockTime = 0 s

runTime.value(): 2.75
snapshotsTime: 2.7
Time = 2.8

DICPCG:  Solving for T, Initial residual = 0.0028935076, Final residual = 7.0726614e-07, No Iterations 4
DICPCG:  Solving for T, Initial residual = 7.0530679e-07, Final residual = 7.0530679e-07, No Iterations 0
DICPCG:  Solving for T, Initial residual = 7.0530679e-07, Final residual = 7.0530679e-07, No Iterations 0
ExecutionTime = 0.23 s  ClockTime = 0 s

Time = 2.85

DICPCG:  Solving for T, Initial residual = 0.0028579838, Final residual = 6.9716497e-07, No Iterations 4
DICPCG:  Solving for T, Initial residual = 6.9528195e-07, Final residual = 6.9528195e-07, No Iterations 0
DICPCG:  Solving for T, Initial residual = 6.9528195e-07, Final residual = 6.9528195e-07, No Iterations 0
ExecutionTime = 0.23 s  ClockTime = 0 s

runTime.value(): 2.85
snapshotsTime: 2.8
Time = 2.9

DICPCG:  Solving for T, Initial residual = 0.002823648, Final residual = 6.8745896e-07, No Iterations 4
DICPCG:  Solving for T, Initial residual = 6.8564798e-07, Final residual = 6.8564798e-07, No Iterations 0
DICPCG:  Solving for T, Initial residual = 6.8564798e-07, Final residual = 6.8564798e-07, No Iterations 0
ExecutionTime = 0.23 s  ClockTime = 0 s

Time = 2.95

DICPCG:  Solving for T, Initial residual = 0.0027904385, Final residual = 6.7808413e-07, No Iterations 4
DICPCG:  Solving for T, Initial residual = 6.7634132e-07, Final residual = 6.7634132e-07, No Iterations 0
DICPCG:  Solving for T, Initial residual = 6.7634132e-07, Final residual = 6.7634132e-07, No Iterations 0
ExecutionTime = 0.23 s  ClockTime = 0 s

runTime.value(): 2.95
snapshotsTime: 2.9
Time = 3

DICPCG:  Solving for T, Initial residual = 0.0027582977, Final residual = 6.690006e-07, No Iterations 4
DICPCG:  Solving for T, Initial residual = 6.6732242e-07, Final residual = 6.6732242e-07, No Iterations 0
DICPCG:  Solving for T, Initial residual = 6.6732242e-07, Final residual = 6.6732242e-07, No Iterations 0
ExecutionTime = 0.24 s  ClockTime = 0 s

Time = 3.05

DICPCG:  Solving for T, Initial residual = 0.0027271717, Final residual = 6.6020317e-07, No Iterations 4
DICPCG:  Solving for T, Initial residual = 6.5858628e-07, Final residual = 6.5858628e-07, No Iterations 0
DICPCG:  Solving for T, Initial residual = 6.5858628e-07, Final residual = 6.5858628e-07, No Iterations 0
ExecutionTime = 0.24 s  ClockTime = 0 s

runTime.value(): 3.05
snapshotsTime: 3
Time = 3.1

DICPCG:  Solving for T, Initial residual = 0.0026970101, Final residual = 6.5168971e-07, No Iterations 4
DICPCG:  Solving for T, Initial residual = 6.5013098e-07, Final residual = 6.5013098e-07, No Iterations 0
DICPCG:  Solving for T, Initial residual = 6.5013098e-07, Final residual = 6.5013098e-07, No Iterations 0
ExecutionTime = 0.24 s  ClockTime = 0 s

Time = 3.15

DICPCG:  Solving for T, Initial residual = 0.0026677656, Final residual = 6.4344924e-07, No Iterations 4
DICPCG:  Solving for T, Initial residual = 6.4194572e-07, Final residual = 6.4194572e-07, No Iterations 0
DICPCG:  Solving for T, Initial residual = 6.4194572e-07, Final residual = 6.4194572e-07, No Iterations 0
ExecutionTime = 0.24 s  ClockTime = 0 s

runTime.value(): 3.15
snapshotsTime: 3.1
Time = 3.2

DICPCG:  Solving for T, Initial residual = 0.002639225, Final residual = 6.3543298e-07, No Iterations 4
DICPCG:  Solving for T, Initial residual = 6.3402263e-07, Final residual = 6.3402263e-07, No Iterations 0
DICPCG:  Solving for T, Initial residual = 6.3402263e-07, Final residual = 6.3402263e-07, No Iterations 0
ExecutionTime = 0.24 s  ClockTime = 0 s

Time = 3.25

DICPCG:  Solving for T, Initial residual = 0.0026112634, Final residual = 6.2764011e-07, No Iterations 4
DICPCG:  Solving for T, Initial residual = 6.2626009e-07, Final residual = 6.2626009e-07, No Iterations 0
DICPCG:  Solving for T, Initial residual = 6.2626009e-07, Final residual = 6.2626009e-07, No Iterations 0
ExecutionTime = 0.25 s  ClockTime = 0 s

runTime.value(): 3.25
snapshotsTime: 3.2
Time = 3.3

DICPCG:  Solving for T, Initial residual = 0.0025838603, Final residual = 6.2001676e-07, No Iterations 4
DICPCG:  Solving for T, Initial residual = 6.1864427e-07, Final residual = 6.1864427e-07, No Iterations 0
DICPCG:  Solving for T, Initial residual = 6.1864427e-07, Final residual = 6.1864427e-07, No Iterations 0
ExecutionTime = 0.25 s  ClockTime = 0 s

Time = 3.35

DICPCG:  Solving for T, Initial residual = 0.0025570704, Final residual = 6.1255216e-07, No Iterations 4
DICPCG:  Solving for T, Initial residual = 6.1122658e-07, Final residual = 6.1122658e-07, No Iterations 0
DICPCG:  Solving for T, Initial residual = 6.1122658e-07, Final residual = 6.1122658e-07, No Iterations 0
ExecutionTime = 0.25 s  ClockTime = 0 s

runTime.value(): 3.35
snapshotsTime: 3.3
Time = 3.4

DICPCG:  Solving for T, Initial residual = 0.002531031, Final residual = 6.0528081e-07, No Iterations 4
DICPCG:  Solving for T, Initial residual = 6.0399999e-07, Final residual = 6.0399999e-07, No Iterations 0
DICPCG:  Solving for T, Initial residual = 6.0399999e-07, Final residual = 6.0399999e-07, No Iterations 0
ExecutionTime = 0.25 s  ClockTime = 0 s

Time = 3.45

DICPCG:  Solving for T, Initial residual = 0.0025057079, Final residual = 5.9820668e-07, No Iterations 4
DICPCG:  Solving for T, Initial residual = 5.9696857e-07, Final residual = 5.9696857e-07, No Iterations 0
DICPCG:  Solving for T, Initial residual = 5.9696857e-07, Final residual = 5.9696857e-07, No Iterations 0
ExecutionTime = 0.25 s  ClockTime = 0 s

runTime.value(): 3.45
snapshotsTime: 3.4
Time = 3.5

DICPCG:  Solving for T, Initial residual = 0.0024810693, Final residual = 5.9135513e-07, No Iterations 4
DICPCG:  Solving for T, Initial residual = 5.9015773e-07, Final residual = 5.9015773e-07, No Iterations 0
DICPCG:  Solving for T, Initial residual = 5.9015773e-07, Final residual = 5.9015773e-07, No Iterations 0
ExecutionTime = 0.26 s  ClockTime = 0 s

Time = 3.55

DICPCG:  Solving for T, Initial residual = 0.0024570848, Final residual = 5.8468286e-07, No Iterations 4
DICPCG:  Solving for T, Initial residual = 5.8352437e-07, Final residual = 5.8352437e-07, No Iterations 0
DICPCG:  Solving for T, Initial residual = 5.8352437e-07, Final residual = 5.8352437e-07, No Iterations 0
ExecutionTime = 0.26 s  ClockTime = 0 s

runTime.value(): 3.55
snapshotsTime: 3.5
Time = 3.6

DICPCG:  Solving for T, Initial residual = 0.002433726, Final residual = 5.7819299e-07, No Iterations 4
DICPCG:  Solving for T, Initial residual = 5.7707166e-07, Final residual = 5.7707166e-07, No Iterations 0
DICPCG:  Solving for T, Initial residual = 5.7707166e-07, Final residual = 5.7707166e-07, No Iterations 0
ExecutionTime = 0.26 s  ClockTime = 0 s

Time = 3.65

DICPCG:  Solving for T, Initial residual = 0.0024109657, Final residual = 5.7185966e-07, No Iterations 4
DICPCG:  Solving for T, Initial residual = 5.707739e-07, Final residual = 5.707739e-07, No Iterations 0
DICPCG:  Solving for T, Initial residual = 5.707739e-07, Final residual = 5.707739e-07, No Iterations 0
ExecutionTime = 0.27 s  ClockTime = 0 s

runTime.value(): 3.65
snapshotsTime: 3.6
Time = 3.7

DICPCG:  Solving for T, Initial residual = 0.0023887785, Final residual = 5.6575776e-07, No Iterations 4
DICPCG:  Solving for T, Initial residual = 5.6470591e-07, Final residual = 5.6470591e-07, No Iterations 0
DICPCG:  Solving for T, Initial residual = 5.6470591e-07, Final residual = 5.6470591e-07, No Iterations 0
ExecutionTime = 0.27 s  ClockTime = 0 s

Time = 3.75

DICPCG:  Solving for T, Initial residual = 0.0023671402, Final residual = 5.5980801e-07, No Iterations 4
DICPCG:  Solving for T, Initial residual = 5.5878863e-07, Final residual = 5.5878863e-07, No Iterations 0
DICPCG:  Solving for T, Initial residual = 5.5878863e-07, Final residual = 5.5878863e-07, No Iterations 0
ExecutionTime = 0.27 s  ClockTime = 0 s

runTime.value(): 3.75
snapshotsTime: 3.7
Time = 3.8

DICPCG:  Solving for T, Initial residual = 0.0023460278, Final residual = 5.5399531e-07, No Iterations 4
DICPCG:  Solving for T, Initial residual = 5.5300706e-07, Final residual = 5.5300706e-07, No Iterations 0
DICPCG:  Solving for T, Initial residual = 5.5300706e-07, Final residual = 5.5300706e-07, No Iterations 0
ExecutionTime = 0.27 s  ClockTime = 0 s

Time = 3.85

DICPCG:  Solving for T, Initial residual = 0.0023254198, Final residual = 5.4830216e-07, No Iterations 4
DICPCG:  Solving for T, Initial residual = 5.4734378e-07, Final residual = 5.4734378e-07, No Iterations 0
DICPCG:  Solving for T, Initial residual = 5.4734378e-07, Final residual = 5.4734378e-07, No Iterations 0
ExecutionTime = 0.27 s  ClockTime = 0 s

runTime.value(): 3.85
snapshotsTime: 3.8
Time = 3.9

DICPCG:  Solving for T, Initial residual = 0.0023052954, Final residual = 5.4275144e-07, No Iterations 4
DICPCG:  Solving for T, Initial residual = 5.4182169e-07, Final residual = 5.4182169e-07, No Iterations 0
DICPCG:  Solving for T, Initial residual = 5.4182169e-07, Final residual = 5.4182169e-07, No Iterations 0
ExecutionTime = 0.28 s  ClockTime = 0 s

Time = 3.95

DICPCG:  Solving for T, Initial residual = 0.0022856353, Final residual = 5.3734463e-07, No Iterations 4
DICPCG:  Solving for T, Initial residual = 5.3644235e-07, Final residual = 5.3644235e-07, No Iterations 0
DICPCG:  Solving for T, Initial residual = 5.3644235e-07, Final residual = 5.3644235e-07, No Iterations 0
ExecutionTime = 0.28 s  ClockTime = 0 s

runTime.value(): 3.95
snapshotsTime: 3.9
Time = 4

DICPCG:  Solving for T, Initial residual = 0.0022664207, Final residual = 5.3205325e-07, No Iterations 4
DICPCG:  Solving for T, Initial residual = 5.3117735e-07, Final residual = 5.3117735e-07, No Iterations 0
DICPCG:  Solving for T, Initial residual = 5.3117735e-07, Final residual = 5.3117735e-07, No Iterations 0
ExecutionTime = 0.28 s  ClockTime = 0 s

Time = 4.05

DICPCG:  Solving for T, Initial residual = 0.0022476342, Final residual = 5.2688336e-07, No Iterations 4
DICPCG:  Solving for T, Initial residual = 5.2603278e-07, Final residual = 5.2603278e-07, No Iterations 0
DICPCG:  Solving for T, Initial residual = 5.2603278e-07, Final residual = 5.2603278e-07, No Iterations 0
ExecutionTime = 0.28 s  ClockTime = 0 s

runTime.value(): 4.05
snapshotsTime: 4
Time = 4.1

DICPCG:  Solving for T, Initial residual = 0.002229259, Final residual = 5.2182798e-07, No Iterations 4
DICPCG:  Solving for T, Initial residual = 5.2100176e-07, Final residual = 5.2100176e-07, No Iterations 0
DICPCG:  Solving for T, Initial residual = 5.2100176e-07, Final residual = 5.2100176e-07, No Iterations 0
ExecutionTime = 0.28 s  ClockTime = 0 s

Time = 4.15

DICPCG:  Solving for T, Initial residual = 0.0022112792, Final residual = 5.1688615e-07, No Iterations 4
DICPCG:  Solving for T, Initial residual = 5.1608332e-07, Final residual = 5.1608332e-07, No Iterations 0
DICPCG:  Solving for T, Initial residual = 5.1608332e-07, Final residual = 5.1608332e-07, No Iterations 0
ExecutionTime = 0.28 s  ClockTime = 0 s

runTime.value(): 4.15
snapshotsTime: 4.1
Time = 4.2

DICPCG:  Solving for T, Initial residual = 0.0021936796, Final residual = 5.1204194e-07, No Iterations 4
DICPCG:  Solving for T, Initial residual = 5.1126164e-07, Final residual = 5.1126164e-07, No Iterations 0
DICPCG:  Solving for T, Initial residual = 5.1126164e-07, Final residual = 5.1126164e-07, No Iterations 0
ExecutionTime = 0.29 s  ClockTime = 0 s

Time = 4.25

DICPCG:  Solving for T, Initial residual = 0.0021764457, Final residual = 5.0730564e-07, No Iterations 4
DICPCG:  Solving for T, Initial residual = 5.06547e-07, Final residual = 5.06547e-07, No Iterations 0
DICPCG:  Solving for T, Initial residual = 5.06547e-07, Final residual = 5.06547e-07, No Iterations 0
ExecutionTime = 0.29 s  ClockTime = 0 s

runTime.value(): 4.25
snapshotsTime: 4.2
Time = 4.3

DICPCG:  Solving for T, Initial residual = 0.0021593474, Final residual = 5.0261803e-07, No Iterations 4
DICPCG:  Solving for T, Initial residual = 5.0193067e-07, Final residual = 5.0193067e-07, No Iterations 0
DICPCG:  Solving for T, Initial residual = 5.0193067e-07, Final residual = 5.0193067e-07, No Iterations 0
ExecutionTime = 0.29 s  ClockTime = 0 s

Time = 4.35

DICPCG:  Solving for T, Initial residual = 0.0021425713, Final residual = 4.980344e-07, No Iterations 4
DICPCG:  Solving for T, Initial residual = 4.9731846e-07, Final residual = 4.9731846e-07, No Iterations 0
DICPCG:  Solving for T, Initial residual = 4.9731846e-07, Final residual = 4.9731846e-07, No Iterations 0
ExecutionTime = 0.29 s  ClockTime = 0 s

runTime.value(): 4.35
snapshotsTime: 4.3
Time = 4.4

DICPCG:  Solving for T, Initial residual = 0.0021259086, Final residual = 4.9348874e-07, No Iterations 4
DICPCG:  Solving for T, Initial residual = 4.9278936e-07, Final residual = 4.9278936e-07, No Iterations 0
DICPCG:  Solving for T, Initial residual = 4.9278936e-07, Final residual = 4.9278936e-07, No Iterations 0
ExecutionTime = 0.3 s  ClockTime = 0 s

Time = 4.45

DICPCG:  Solving for T, Initial residual = 0.0021095596, Final residual = 4.8903052e-07, No Iterations 4
DICPCG:  Solving for T, Initial residual = 4.8835038e-07, Final residual = 4.8835038e-07, No Iterations 0
DICPCG:  Solving for T, Initial residual = 4.8835038e-07, Final residual = 4.8835038e-07, No Iterations 0
ExecutionTime = 0.3 s  ClockTime = 0 s

runTime.value(): 4.45
snapshotsTime: 4.4
Time = 4.5

DICPCG:  Solving for T, Initial residual = 0.0020935269, Final residual = 4.8467099e-07, No Iterations 4
DICPCG:  Solving for T, Initial residual = 4.8400937e-07, Final residual = 4.8400937e-07, No Iterations 0
DICPCG:  Solving for T, Initial residual = 4.8400937e-07, Final residual = 4.8400937e-07, No Iterations 0
ExecutionTime = 0.3 s  ClockTime = 0 s

Time = 4.55

DICPCG:  Solving for T, Initial residual = 0.0020777993, Final residual = 4.8038622e-07, No Iterations 4
DICPCG:  Solving for T, Initial residual = 4.7974249e-07, Final residual = 4.7974249e-07, No Iterations 0
DICPCG:  Solving for T, Initial residual = 4.7974249e-07, Final residual = 4.7974249e-07, No Iterations 0
ExecutionTime = 0.3 s  ClockTime = 0 s

runTime.value(): 4.55
snapshotsTime: 4.5
Time = 4.6

DICPCG:  Solving for T, Initial residual = 0.0020623661, Final residual = 4.7618785e-07, No Iterations 4
DICPCG:  Solving for T, Initial residual = 4.7556135e-07, Final residual = 4.7556135e-07, No Iterations 0
DICPCG:  Solving for T, Initial residual = 4.7556135e-07, Final residual = 4.7556135e-07, No Iterations 0
ExecutionTime = 0.3 s  ClockTime = 0 s

Time = 4.65

DICPCG:  Solving for T, Initial residual = 0.0020472169, Final residual = 4.7207037e-07, No Iterations 4
DICPCG:  Solving for T, Initial residual = 4.7146051e-07, Final residual = 4.7146051e-07, No Iterations 0
DICPCG:  Solving for T, Initial residual = 4.7146051e-07, Final residual = 4.7146051e-07, No Iterations 0
ExecutionTime = 0.31 s  ClockTime = 0 s

runTime.value(): 4.65
snapshotsTime: 4.6
Time = 4.7

DICPCG:  Solving for T, Initial residual = 0.0020323419, Final residual = 4.680341e-07, No Iterations 4
DICPCG:  Solving for T, Initial residual = 4.6744029e-07, Final residual = 4.6744029e-07, No Iterations 0
DICPCG:  Solving for T, Initial residual = 4.6744029e-07, Final residual = 4.6744029e-07, No Iterations 0
ExecutionTime = 0.31 s  ClockTime = 0 s

Time = 4.75

DICPCG:  Solving for T, Initial residual = 0.0020177318, Final residual = 4.6407866e-07, No Iterations 4
DICPCG:  Solving for T, Initial residual = 4.6350035e-07, Final residual = 4.6350035e-07, No Iterations 0
DICPCG:  Solving for T, Initial residual = 4.6350035e-07, Final residual = 4.6350035e-07, No Iterations 0
ExecutionTime = 0.31 s  ClockTime = 0 s

runTime.value(): 4.75
snapshotsTime: 4.7
Time = 4.8

DICPCG:  Solving for T, Initial residual = 0.0020033775, Final residual = 4.6019567e-07, No Iterations 4
DICPCG:  Solving for T, Initial residual = 4.5963233e-07, Final residual = 4.5963233e-07, No Iterations 0
DICPCG:  Solving for T, Initial residual = 4.5963233e-07, Final residual = 4.5963233e-07, No Iterations 0
ExecutionTime = 0.31 s  ClockTime = 0 s

Time = 4.85

DICPCG:  Solving for T, Initial residual = 0.0019892704, Final residual = 4.5638399e-07, No Iterations 4
DICPCG:  Solving for T, Initial residual = 4.5583511e-07, Final residual = 4.5583511e-07, No Iterations 0
DICPCG:  Solving for T, Initial residual = 4.5583511e-07, Final residual = 4.5583511e-07, No Iterations 0
ExecutionTime = 0.31 s  ClockTime = 0 s

runTime.value(): 4.85
snapshotsTime: 4.8
Time = 4.9

DICPCG:  Solving for T, Initial residual = 0.0019754023, Final residual = 4.5263574e-07, No Iterations 4
DICPCG:  Solving for T, Initial residual = 4.5210084e-07, Final residual = 4.5210084e-07, No Iterations 0
DICPCG:  Solving for T, Initial residual = 4.5210084e-07, Final residual = 4.5210084e-07, No Iterations 0
ExecutionTime = 0.32 s  ClockTime = 0 s

Time = 4.95

DICPCG:  Solving for T, Initial residual = 0.0019617654, Final residual = 4.4895476e-07, No Iterations 4
DICPCG:  Solving for T, Initial residual = 4.4843338e-07, Final residual = 4.4843338e-07, No Iterations 0
DICPCG:  Solving for T, Initial residual = 4.4843338e-07, Final residual = 4.4843338e-07, No Iterations 0
ExecutionTime = 0.32 s  ClockTime = 0 s

runTime.value(): 4.95
snapshotsTime: 4.9
Time = 5

DICPCG:  Solving for T, Initial residual = 0.0019483521, Final residual = 4.4534096e-07, No Iterations 4
DICPCG:  Solving for T, Initial residual = 4.4483264e-07, Final residual = 4.4483264e-07, No Iterations 0
DICPCG:  Solving for T, Initial residual = 4.4483264e-07, Final residual = 4.4483264e-07, No Iterations 0
ExecutionTime = 0.36 s  ClockTime = 0 s

Time = 5.05

DICPCG:  Solving for T, Initial residual = 0.0019351552, Final residual = 4.4179405e-07, No Iterations 4
DICPCG:  Solving for T, Initial residual = 4.4129836e-07, Final residual = 4.4129836e-07, No Iterations 0
DICPCG:  Solving for T, Initial residual = 4.4129836e-07, Final residual = 4.4129836e-07, No Iterations 0
ExecutionTime = 0.36 s  ClockTime = 0 s

runTime.value(): 5.05
snapshotsTime: 5
Time = 5.1

DICPCG:  Solving for T, Initial residual = 0.0019221677, Final residual = 4.3830497e-07, No Iterations 4
DICPCG:  Solving for T, Initial residual = 4.3782152e-07, Final residual = 4.3782152e-07, No Iterations 0
DICPCG:  Solving for T, Initial residual = 4.3782152e-07, Final residual = 4.3782152e-07, No Iterations 0
ExecutionTime = 0.36 s  ClockTime = 0 s

Time = 5.15

DICPCG:  Solving for T, Initial residual = 0.0019093832, Final residual = 4.3487071e-07, No Iterations 4
DICPCG:  Solving for T, Initial residual = 4.343991e-07, Final residual = 4.343991e-07, No Iterations 0
DICPCG:  Solving for T, Initial residual = 4.343991e-07, Final residual = 4.343991e-07, No Iterations 0
ExecutionTime = 0.36 s  ClockTime = 0 s

runTime.value(): 5.15
snapshotsTime: 5.1
Time = 5.2

DICPCG:  Solving for T, Initial residual = 0.0018967951, Final residual = 4.315017e-07, No Iterations 4
DICPCG:  Solving for T, Initial residual = 4.3104155e-07, Final residual = 4.3104155e-07, No Iterations 0
DICPCG:  Solving for T, Initial residual = 4.3104155e-07, Final residual = 4.3104155e-07, No Iterations 0
ExecutionTime = 0.37 s  ClockTime = 0 s

Time = 5.25

DICPCG:  Solving for T, Initial residual = 0.0018843974, Final residual = 4.2819867e-07, No Iterations 4
DICPCG:  Solving for T, Initial residual = 4.277496e-07, Final residual = 4.277496e-07, No Iterations 0
DICPCG:  Solving for T, Initial residual = 4.277496e-07, Final residual = 4.277496e-07, No Iterations 0
ExecutionTime = 0.37 s  ClockTime = 0 s

runTime.value(): 5.25
snapshotsTime: 5.2
Time = 5.3

DICPCG:  Solving for T, Initial residual = 0.0018721843, Final residual = 4.2494234e-07, No Iterations 4
DICPCG:  Solving for T, Initial residual = 4.2450402e-07, Final residual = 4.2450402e-07, No Iterations 0
DICPCG:  Solving for T, Initial residual = 4.2450402e-07, Final residual = 4.2450402e-07, No Iterations 0
ExecutionTime = 0.37 s  ClockTime = 0 s

Time = 5.35

DICPCG:  Solving for T, Initial residual = 0.0018601501, Final residual = 4.2174034e-07, No Iterations 4
DICPCG:  Solving for T, Initial residual = 4.2131243e-07, Final residual = 4.2131243e-07, No Iterations 0
DICPCG:  Solving for T, Initial residual = 4.2131243e-07, Final residual = 4.2131243e-07, No Iterations 0
ExecutionTime = 0.37 s  ClockTime = 0 s

runTime.value(): 5.35
snapshotsTime: 5.3
Time = 5.4

DICPCG:  Solving for T, Initial residual = 0.0018482896, Final residual = 4.1858879e-07, No Iterations 4
DICPCG:  Solving for T, Initial residual = 4.1817097e-07, Final residual = 4.1817097e-07, No Iterations 0
DICPCG:  Solving for T, Initial residual = 4.1817097e-07, Final residual = 4.1817097e-07, No Iterations 0
ExecutionTime = 0.37 s  ClockTime = 0 s

Time = 5.45

DICPCG:  Solving for T, Initial residual = 0.0018365974, Final residual = 4.1548159e-07, No Iterations 4
DICPCG:  Solving for T, Initial residual = 4.1507354e-07, Final residual = 4.1507354e-07, No Iterations 0
DICPCG:  Solving for T, Initial residual = 4.1507354e-07, Final residual = 4.1507354e-07, No Iterations 0
ExecutionTime = 0.38 s  ClockTime = 0 s

runTime.value(): 5.45
snapshotsTime: 5.4
Time = 5.5

DICPCG:  Solving for T, Initial residual = 0.0018250686, Final residual = 4.1241369e-07, No Iterations 4
DICPCG:  Solving for T, Initial residual = 4.1201515e-07, Final residual = 4.1201515e-07, No Iterations 0
DICPCG:  Solving for T, Initial residual = 4.1201515e-07, Final residual = 4.1201515e-07, No Iterations 0
ExecutionTime = 0.38 s  ClockTime = 0 s

Time = 5.55

DICPCG:  Solving for T, Initial residual = 0.0018136986, Final residual = 4.0938766e-07, No Iterations 4
DICPCG:  Solving for T, Initial residual = 4.0899833e-07, Final residual = 4.0899833e-07, No Iterations 0
DICPCG:  Solving for T, Initial residual = 4.0899833e-07, Final residual = 4.0899833e-07, No Iterations 0
ExecutionTime = 0.38 s  ClockTime = 0 s

runTime.value(): 5.55
snapshotsTime: 5.5
Time = 5.6

DICPCG:  Solving for T, Initial residual = 0.0018024826, Final residual = 4.0641705e-07, No Iterations 4
DICPCG:  Solving for T, Initial residual = 4.0603665e-07, Final residual = 4.0603665e-07, No Iterations 0
DICPCG:  Solving for T, Initial residual = 4.0603665e-07, Final residual = 4.0603665e-07, No Iterations 0
ExecutionTime = 0.38 s  ClockTime = 0 s

Time = 5.65

DICPCG:  Solving for T, Initial residual = 0.0017914164, Final residual = 4.0349546e-07, No Iterations 4
DICPCG:  Solving for T, Initial residual = 4.0312372e-07, Final residual = 4.0312372e-07, No Iterations 0
DICPCG:  Solving for T, Initial residual = 4.0312372e-07, Final residual = 4.0312372e-07, No Iterations 0
ExecutionTime = 0.38 s  ClockTime = 0 s

runTime.value(): 5.65
snapshotsTime: 5.6
Time = 5.7

DICPCG:  Solving for T, Initial residual = 0.0017804956, Final residual = 4.0061384e-07, No Iterations 4
DICPCG:  Solving for T, Initial residual = 4.0025051e-07, Final residual = 4.0025051e-07, No Iterations 0
DICPCG:  Solving for T, Initial residual = 4.0025051e-07, Final residual = 4.0025051e-07, No Iterations 0
ExecutionTime = 0.39 s  ClockTime = 0 s

Time = 5.75

DICPCG:  Solving for T, Initial residual = 0.0017696789, Final residual = 3.977579e-07, No Iterations 4
DICPCG:  Solving for T, Initial residual = 3.9741113e-07, Final residual = 3.9741113e-07, No Iterations 0
DICPCG:  Solving for T, Initial residual = 3.9741113e-07, Final residual = 3.9741113e-07, No Iterations 0
ExecutionTime = 0.39 s  ClockTime = 0 s

runTime.value(): 5.75
snapshotsTime: 5.7
Time = 5.8

DICPCG:  Solving for T, Initial residual = 0.001758908, Final residual = 3.9491673e-07, No Iterations 4
DICPCG:  Solving for T, Initial residual = 3.9460128e-07, Final residual = 3.9460128e-07, No Iterations 0
DICPCG:  Solving for T, Initial residual = 3.9460128e-07, Final residual = 3.9460128e-07, No Iterations 0
ExecutionTime = 0.39 s  ClockTime = 0 s

Time = 5.85

DICPCG:  Solving for T, Initial residual = 0.0017482615, Final residual = 3.9211643e-07, No Iterations 4
DICPCG:  Solving for T, Initial residual = 3.9178248e-07, Final residual = 3.9178248e-07, No Iterations 0
DICPCG:  Solving for T, Initial residual = 3.9178248e-07, Final residual = 3.9178248e-07, No Iterations 0
ExecutionTime = 0.39 s  ClockTime = 0 s

runTime.value(): 5.85
snapshotsTime: 5.8
Time = 5.9

DICPCG:  Solving for T, Initial residual = 0.0017376335, Final residual = 3.8933747e-07, No Iterations 4
DICPCG:  Solving for T, Initial residual = 3.8901115e-07, Final residual = 3.8901115e-07, No Iterations 0
DICPCG:  Solving for T, Initial residual = 3.8901115e-07, Final residual = 3.8901115e-07, No Iterations 0
ExecutionTime = 0.39 s  ClockTime = 0 s

Time = 5.95

DICPCG:  Solving for T, Initial residual = 0.001727138, Final residual = 3.8659924e-07, No Iterations 4
DICPCG:  Solving for T, Initial residual = 3.8628034e-07, Final residual = 3.8628034e-07, No Iterations 0
DICPCG:  Solving for T, Initial residual = 3.8628034e-07, Final residual = 3.8628034e-07, No Iterations 0
ExecutionTime = 0.4 s  ClockTime = 0 s

runTime.value(): 5.95
snapshotsTime: 5.9
Time = 6

DICPCG:  Solving for T, Initial residual = 0.0017167715, Final residual = 3.8389185e-07, No Iterations 4
DICPCG:  Solving for T, Initial residual = 3.8358015e-07, Final residual = 3.8358015e-07, No Iterations 0
DICPCG:  Solving for T, Initial residual = 3.8358015e-07, Final residual = 3.8358015e-07, No Iterations 0
ExecutionTime = 0.4 s  ClockTime = 0 s

Time = 6.05

DICPCG:  Solving for T, Initial residual = 0.0017065305, Final residual = 3.8122337e-07, No Iterations 4
DICPCG:  Solving for T, Initial residual = 3.8091868e-07, Final residual = 3.8091868e-07, No Iterations 0
DICPCG:  Solving for T, Initial residual = 3.8091868e-07, Final residual = 3.8091868e-07, No Iterations 0
ExecutionTime = 0.4 s  ClockTime = 0 s

runTime.value(): 6.05
snapshotsTime: 6
Time = 6.1

DICPCG:  Solving for T, Initial residual = 0.0016964118, Final residual = 3.7858952e-07, No Iterations 4
DICPCG:  Solving for T, Initial residual = 3.7829163e-07, Final residual = 3.7829163e-07, No Iterations 0
DICPCG:  Solving for T, Initial residual = 3.7829163e-07, Final residual = 3.7829163e-07, No Iterations 0
ExecutionTime = 0.4 s  ClockTime = 0 s

Time = 6.15

DICPCG:  Solving for T, Initial residual = 0.0016864123, Final residual = 3.759906e-07, No Iterations 4
DICPCG:  Solving for T, Initial residual = 3.7569932e-07, Final residual = 3.7569932e-07, No Iterations 0
DICPCG:  Solving for T, Initial residual = 3.7569932e-07, Final residual = 3.7569932e-07, No Iterations 0
ExecutionTime = 0.4 s  ClockTime = 0 s

runTime.value(): 6.15
snapshotsTime: 6.1
Time = 6.2

DICPCG:  Solving for T, Initial residual = 0.001676529, Final residual = 3.7342567e-07, No Iterations 4
DICPCG:  Solving for T, Initial residual = 3.7314083e-07, Final residual = 3.7314083e-07, No Iterations 0
DICPCG:  Solving for T, Initial residual = 3.7314083e-07, Final residual = 3.7314083e-07, No Iterations 0
ExecutionTime = 0.4 s  ClockTime = 0 s

Time = 6.25

DICPCG:  Solving for T, Initial residual = 0.0016667588, Final residual = 3.7089018e-07, No Iterations 4
DICPCG:  Solving for T, Initial residual = 3.7061159e-07, Final residual = 3.7061159e-07, No Iterations 0
DICPCG:  Solving for T, Initial residual = 3.7061159e-07, Final residual = 3.7061159e-07, No Iterations 0
ExecutionTime = 0.41 s  ClockTime = 0 s

runTime.value(): 6.25
snapshotsTime: 6.2
Time = 6.3

DICPCG:  Solving for T, Initial residual = 0.0016570991, Final residual = 3.6838169e-07, No Iterations 4
DICPCG:  Solving for T, Initial residual = 3.6810919e-07, Final residual = 3.6810919e-07, No Iterations 0
DICPCG:  Solving for T, Initial residual = 3.6810919e-07, Final residual = 3.6810919e-07, No Iterations 0
ExecutionTime = 0.41 s  ClockTime = 0 s

Time = 6.35

DICPCG:  Solving for T, Initial residual = 0.0016475471, Final residual = 3.6590078e-07, No Iterations 4
DICPCG:  Solving for T, Initial residual = 3.656342e-07, Final residual = 3.656342e-07, No Iterations 0
DICPCG:  Solving for T, Initial residual = 3.656342e-07, Final residual = 3.656342e-07, No Iterations 0
ExecutionTime = 0.41 s  ClockTime = 0 s

runTime.value(): 6.35
snapshotsTime: 6.3
Time = 6.4

DICPCG:  Solving for T, Initial residual = 0.0016381001, Final residual = 3.6344555e-07, No Iterations 4
DICPCG:  Solving for T, Initial residual = 3.6318473e-07, Final residual = 3.6318473e-07, No Iterations 0
DICPCG:  Solving for T, Initial residual = 3.6318473e-07, Final residual = 3.6318473e-07, No Iterations 0
ExecutionTime = 0.41 s  ClockTime = 0 s

Time = 6.45

DICPCG:  Solving for T, Initial residual = 0.0016287557, Final residual = 3.6102099e-07, No Iterations 4
DICPCG:  Solving for T, Initial residual = 3.6076578e-07, Final residual = 3.6076578e-07, No Iterations 0
DICPCG:  Solving for T, Initial residual = 3.6076578e-07, Final residual = 3.6076578e-07, No Iterations 0
ExecutionTime = 0.41 s  ClockTime = 0 s

runTime.value(): 6.45
snapshotsTime: 6.4
Time = 6.5

DICPCG:  Solving for T, Initial residual = 0.0016195115, Final residual = 3.5862844e-07, No Iterations 4
DICPCG:  Solving for T, Initial residual = 3.5837869e-07, Final residual = 3.5837869e-07, No Iterations 0
DICPCG:  Solving for T, Initial residual = 3.5837869e-07, Final residual = 3.5837869e-07, No Iterations 0
ExecutionTime = 0.42 s  ClockTime = 0 s

Time = 6.55

DICPCG:  Solving for T, Initial residual = 0.001610365, Final residual = 3.5626637e-07, No Iterations 4
DICPCG:  Solving for T, Initial residual = 3.5602192e-07, Final residual = 3.5602192e-07, No Iterations 0
DICPCG:  Solving for T, Initial residual = 3.5602192e-07, Final residual = 3.5602192e-07, No Iterations 0
ExecutionTime = 0.42 s  ClockTime = 0 s

runTime.value(): 6.55
snapshotsTime: 6.5
Time = 6.6

DICPCG:  Solving for T, Initial residual = 0.001601314, Final residual = 3.5393728e-07, No Iterations 4
DICPCG:  Solving for T, Initial residual = 3.53698e-07, Final residual = 3.53698e-07, No Iterations 0
DICPCG:  Solving for T, Initial residual = 3.53698e-07, Final residual = 3.53698e-07, No Iterations 0
ExecutionTime = 0.42 s  ClockTime = 0 s

Time = 6.65

DICPCG:  Solving for T, Initial residual = 0.0015923563, Final residual = 3.5163325e-07, No Iterations 4
DICPCG:  Solving for T, Initial residual = 3.51399e-07, Final residual = 3.51399e-07, No Iterations 0
DICPCG:  Solving for T, Initial residual = 3.51399e-07, Final residual = 3.51399e-07, No Iterations 0
ExecutionTime = 0.42 s  ClockTime = 0 s

runTime.value(): 6.65
snapshotsTime: 6.6
Time = 6.7

DICPCG:  Solving for T, Initial residual = 0.0015834898, Final residual = 3.4935264e-07, No Iterations 4
DICPCG:  Solving for T, Initial residual = 3.491233e-07, Final residual = 3.491233e-07, No Iterations 0
DICPCG:  Solving for T, Initial residual = 3.491233e-07, Final residual = 3.491233e-07, No Iterations 0
ExecutionTime = 0.42 s  ClockTime = 0 s

Time = 6.75

DICPCG:  Solving for T, Initial residual = 0.0015747124, Final residual = 3.4709645e-07, No Iterations 4
DICPCG:  Solving for T, Initial residual = 3.4687188e-07, Final residual = 3.4687188e-07, No Iterations 0
DICPCG:  Solving for T, Initial residual = 3.4687188e-07, Final residual = 3.4687188e-07, No Iterations 0
ExecutionTime = 0.42 s  ClockTime = 0 s

runTime.value(): 6.75
snapshotsTime: 6.7
Time = 6.8

DICPCG:  Solving for T, Initial residual = 0.0015660222, Final residual = 3.448685e-07, No Iterations 4
DICPCG:  Solving for T, Initial residual = 3.4464858e-07, Final residual = 3.4464858e-07, No Iterations 0
DICPCG:  Solving for T, Initial residual = 3.4464858e-07, Final residual = 3.4464858e-07, No Iterations 0
ExecutionTime = 0.43 s  ClockTime = 0 s

Time = 6.85

DICPCG:  Solving for T, Initial residual = 0.0015574172, Final residual = 3.4266813e-07, No Iterations 4
DICPCG:  Solving for T, Initial residual = 3.4245274e-07, Final residual = 3.4245274e-07, No Iterations 0
DICPCG:  Solving for T, Initial residual = 3.4245274e-07, Final residual = 3.4245274e-07, No Iterations 0
ExecutionTime = 0.43 s  ClockTime = 0 s

runTime.value(): 6.85
snapshotsTime: 6.8
Time = 6.9

DICPCG:  Solving for T, Initial residual = 0.0015488957, Final residual = 3.4049217e-07, No Iterations 4
DICPCG:  Solving for T, Initial residual = 3.4028118e-07, Final residual = 3.4028118e-07, No Iterations 0
DICPCG:  Solving for T, Initial residual = 3.4028118e-07, Final residual = 3.4028118e-07, No Iterations 0
ExecutionTime = 0.43 s  ClockTime = 0 s

Time = 6.95

DICPCG:  Solving for T, Initial residual = 0.0015404557, Final residual = 3.3833589e-07, No Iterations 4
DICPCG:  Solving for T, Initial residual = 3.3812921e-07, Final residual = 3.3812921e-07, No Iterations 0
DICPCG:  Solving for T, Initial residual = 3.3812921e-07, Final residual = 3.3812921e-07, No Iterations 0
ExecutionTime = 0.43 s  ClockTime = 0 s

runTime.value(): 6.95
snapshotsTime: 6.9
Time = 7

DICPCG:  Solving for T, Initial residual = 0.0015320956, Final residual = 3.362011e-07, No Iterations 4
DICPCG:  Solving for T, Initial residual = 3.359986e-07, Final residual = 3.359986e-07, No Iterations 0
DICPCG:  Solving for T, Initial residual = 3.359986e-07, Final residual = 3.359986e-07, No Iterations 0
ExecutionTime = 0.43 s  ClockTime = 0 s

Time = 7.05

DICPCG:  Solving for T, Initial residual = 0.0015238137, Final residual = 3.340887e-07, No Iterations 4
DICPCG:  Solving for T, Initial residual = 3.3389029e-07, Final residual = 3.3389029e-07, No Iterations 0
DICPCG:  Solving for T, Initial residual = 3.3389029e-07, Final residual = 3.3389029e-07, No Iterations 0
ExecutionTime = 0.44 s  ClockTime = 0 s

runTime.value(): 7.05
snapshotsTime: 7
Time = 7.1

DICPCG:  Solving for T, Initial residual = 0.0015156084, Final residual = 3.3200156e-07, No Iterations 4
DICPCG:  Solving for T, Initial residual = 3.3180714e-07, Final residual = 3.3180714e-07, No Iterations 0
DICPCG:  Solving for T, Initial residual = 3.3180714e-07, Final residual = 3.3180714e-07, No Iterations 0
ExecutionTime = 0.44 s  ClockTime = 0 s

Time = 7.15

DICPCG:  Solving for T, Initial residual = 0.0015074781, Final residual = 3.2993962e-07, No Iterations 4
DICPCG:  Solving for T, Initial residual = 3.2974907e-07, Final residual = 3.2974907e-07, No Iterations 0
DICPCG:  Solving for T, Initial residual = 3.2974907e-07, Final residual = 3.2974907e-07, No Iterations 0
ExecutionTime = 0.44 s  ClockTime = 0 s

runTime.value(): 7.15
snapshotsTime: 7.1
Time = 7.2

DICPCG:  Solving for T, Initial residual = 0.0014994214, Final residual = 3.2790081e-07, No Iterations 4
DICPCG:  Solving for T, Initial residual = 3.2771406e-07, Final residual = 3.2771406e-07, No Iterations 0
DICPCG:  Solving for T, Initial residual = 3.2771406e-07, Final residual = 3.2771406e-07, No Iterations 0
ExecutionTime = 0.44 s  ClockTime = 0 s

Time = 7.25

DICPCG:  Solving for T, Initial residual = 0.0014914366, Final residual = 3.2588114e-07, No Iterations 4
DICPCG:  Solving for T, Initial residual = 3.2569807e-07, Final residual = 3.2569807e-07, No Iterations 0
DICPCG:  Solving for T, Initial residual = 3.2569807e-07, Final residual = 3.2569807e-07, No Iterations 0
ExecutionTime = 0.45 s  ClockTime = 0 s

runTime.value(): 7.25
snapshotsTime: 7.2
Time = 7.3

DICPCG:  Solving for T, Initial residual = 0.0014835224, Final residual = 3.238789e-07, No Iterations 4
DICPCG:  Solving for T, Initial residual = 3.2369944e-07, Final residual = 3.2369944e-07, No Iterations 0
DICPCG:  Solving for T, Initial residual = 3.2369944e-07, Final residual = 3.2369944e-07, No Iterations 0
ExecutionTime = 0.45 s  ClockTime = 0 s

Time = 7.35

DICPCG:  Solving for T, Initial residual = 0.0014756775, Final residual = 3.2189733e-07, No Iterations 4
DICPCG:  Solving for T, Initial residual = 3.2172138e-07, Final residual = 3.2172138e-07, No Iterations 0
DICPCG:  Solving for T, Initial residual = 3.2172138e-07, Final residual = 3.2172138e-07, No Iterations 0
ExecutionTime = 0.45 s  ClockTime = 0 s

runTime.value(): 7.35
snapshotsTime: 7.3
Time = 7.4

DICPCG:  Solving for T, Initial residual = 0.0014679004, Final residual = 3.1993715e-07, No Iterations 4
DICPCG:  Solving for T, Initial residual = 3.1976463e-07, Final residual = 3.1976463e-07, No Iterations 0
DICPCG:  Solving for T, Initial residual = 3.1976463e-07, Final residual = 3.1976463e-07, No Iterations 0
ExecutionTime = 0.45 s  ClockTime = 0 s

Time = 7.45

DICPCG:  Solving for T, Initial residual = 0.0014601899, Final residual = 3.1799765e-07, No Iterations 4
DICPCG:  Solving for T, Initial residual = 3.1782848e-07, Final residual = 3.1782848e-07, No Iterations 0
DICPCG:  Solving for T, Initial residual = 3.1782848e-07, Final residual = 3.1782848e-07, No Iterations 0
ExecutionTime = 0.45 s  ClockTime = 0 s

runTime.value(): 7.45
snapshotsTime: 7.4
Time = 7.5

DICPCG:  Solving for T, Initial residual = 0.0014525447, Final residual = 3.1607823e-07, No Iterations 4
DICPCG:  Solving for T, Initial residual = 3.1591231e-07, Final residual = 3.1591231e-07, No Iterations 0
DICPCG:  Solving for T, Initial residual = 3.1591231e-07, Final residual = 3.1591231e-07, No Iterations 0
ExecutionTime = 0.49 s  ClockTime = 0 s

Time = 7.55

DICPCG:  Solving for T, Initial residual = 0.0014449637, Final residual = 3.1417549e-07, No Iterations 4
DICPCG:  Solving for T, Initial residual = 3.1401276e-07, Final residual = 3.1401276e-07, No Iterations 0
DICPCG:  Solving for T, Initial residual = 3.1401276e-07, Final residual = 3.1401276e-07, No Iterations 0
ExecutionTime = 0.49 s  ClockTime = 0 s

runTime.value(): 7.55
snapshotsTime: 7.5
Time = 7.6

DICPCG:  Solving for T, Initial residual = 0.0014374456, Final residual = 3.122899e-07, No Iterations 4
DICPCG:  Solving for T, Initial residual = 3.1213029e-07, Final residual = 3.1213029e-07, No Iterations 0
DICPCG:  Solving for T, Initial residual = 3.1213029e-07, Final residual = 3.1213029e-07, No Iterations 0
ExecutionTime = 0.5 s  ClockTime = 0 s

Time = 7.65

DICPCG:  Solving for T, Initial residual = 0.0014299893, Final residual = 3.104229e-07, No Iterations 4
DICPCG:  Solving for T, Initial residual = 3.1026632e-07, Final residual = 3.1026632e-07, No Iterations 0
DICPCG:  Solving for T, Initial residual = 3.1026632e-07, Final residual = 3.1026632e-07, No Iterations 0
ExecutionTime = 0.5 s  ClockTime = 0 s

runTime.value(): 7.65
snapshotsTime: 7.6
Time = 7.7

DICPCG:  Solving for T, Initial residual = 0.0014225936, Final residual = 3.0857158e-07, No Iterations 4
DICPCG:  Solving for T, Initial residual = 3.0841797e-07, Final residual = 3.0841797e-07, No Iterations 0
DICPCG:  Solving for T, Initial residual = 3.0841797e-07, Final residual = 3.0841797e-07, No Iterations 0
ExecutionTime = 0.5 s  ClockTime = 0 s

Time = 7.75

DICPCG:  Solving for T, Initial residual = 0.0014152575, Final residual = 3.0673788e-07, No Iterations 4
DICPCG:  Solving for T, Initial residual = 3.0658716e-07, Final residual = 3.0658716e-07, No Iterations 0
DICPCG:  Solving for T, Initial residual = 3.0658716e-07, Final residual = 3.0658716e-07, No Iterations 0
ExecutionTime = 0.5 s  ClockTime = 0 s

runTime.value(): 7.75
snapshotsTime: 7.7
Time = 7.8

DICPCG:  Solving for T, Initial residual = 0.00140798, Final residual = 3.0491937e-07, No Iterations 4
DICPCG:  Solving for T, Initial residual = 3.0477148e-07, Final residual = 3.0477148e-07, No Iterations 0
DICPCG:  Solving for T, Initial residual = 3.0477148e-07, Final residual = 3.0477148e-07, No Iterations 0
ExecutionTime = 0.5 s  ClockTime = 0 s

Time = 7.85

DICPCG:  Solving for T, Initial residual = 0.001400747, Final residual = 3.0311537e-07, No Iterations 4
DICPCG:  Solving for T, Initial residual = 3.0297305e-07, Final residual = 3.0297305e-07, No Iterations 0
DICPCG:  Solving for T, Initial residual = 3.0297305e-07, Final residual = 3.0297305e-07, No Iterations 0
ExecutionTime = 0.51 s  ClockTime = 0 s

runTime.value(): 7.85
snapshotsTime: 7.8
Time = 7.9

DICPCG:  Solving for T, Initial residual = 0.0013935171, Final residual = 3.013148e-07, No Iterations 4
DICPCG:  Solving for T, Initial residual = 3.0118956e-07, Final residual = 3.0118956e-07, No Iterations 0
DICPCG:  Solving for T, Initial residual = 3.0118956e-07, Final residual = 3.0118956e-07, No Iterations 0
ExecutionTime = 0.51 s  ClockTime = 0 s

Time = 7.95

DICPCG:  Solving for T, Initial residual = 0.0013863439, Final residual = 2.9953213e-07, No Iterations 4
DICPCG:  Solving for T, Initial residual = 2.994024e-07, Final residual = 2.994024e-07, No Iterations 0
DICPCG:  Solving for T, Initial residual = 2.994024e-07, Final residual = 2.994024e-07, No Iterations 0
ExecutionTime = 0.51 s  ClockTime = 0 s

runTime.value(): 7.95
snapshotsTime: 7.9
Time = 8

DICPCG:  Solving for T, Initial residual = 0.0013791778, Final residual = 2.9775645e-07, No Iterations 4
DICPCG:  Solving for T, Initial residual = 2.9762563e-07, Final residual = 2.9762563e-07, No Iterations 0
DICPCG:  Solving for T, Initial residual = 2.9762563e-07, Final residual = 2.9762563e-07, No Iterations 0
ExecutionTime = 0.51 s  ClockTime = 0 s

Time = 8.05

DICPCG:  Solving for T, Initial residual = 0.0013720508, Final residual = 2.9599216e-07, No Iterations 4
DICPCG:  Solving for T, Initial residual = 2.9586385e-07, Final residual = 2.9586385e-07, No Iterations 0
DICPCG:  Solving for T, Initial residual = 2.9586385e-07, Final residual = 2.9586385e-07, No Iterations 0
ExecutionTime = 0.51 s  ClockTime = 0 s

runTime.value(): 8.05
snapshotsTime: 8
Time = 8.1

DICPCG:  Solving for T, Initial residual = 0.001364979, Final residual = 2.9424471e-07, No Iterations 4
DICPCG:  Solving for T, Initial residual = 2.9411886e-07, Final residual = 2.9411886e-07, No Iterations 0
DICPCG:  Solving for T, Initial residual = 2.9411886e-07, Final residual = 2.9411886e-07, No Iterations 0
ExecutionTime = 0.52 s  ClockTime = 0 s

Time = 8.15

DICPCG:  Solving for T, Initial residual = 0.0013579616, Final residual = 2.9251266e-07, No Iterations 4
DICPCG:  Solving for T, Initial residual = 2.923892e-07, Final residual = 2.923892e-07, No Iterations 0
DICPCG:  Solving for T, Initial residual = 2.923892e-07, Final residual = 2.923892e-07, No Iterations 0
ExecutionTime = 0.52 s  ClockTime = 0 s

runTime.value(): 8.15
snapshotsTime: 8.1
Time = 8.2

DICPCG:  Solving for T, Initial residual = 0.0013509977, Final residual = 2.9079689e-07, No Iterations 4
DICPCG:  Solving for T, Initial residual = 2.9067578e-07, Final residual = 2.9067578e-07, No Iterations 0
DICPCG:  Solving for T, Initial residual = 2.9067578e-07, Final residual = 2.9067578e-07, No Iterations 0
ExecutionTime = 0.52 s  ClockTime = 0 s

Time = 8.25

DICPCG:  Solving for T, Initial residual = 0.0013440864, Final residual = 2.8909756e-07, No Iterations 4
DICPCG:  Solving for T, Initial residual = 2.8897873e-07, Final residual = 2.8897873e-07, No Iterations 0
DICPCG:  Solving for T, Initial residual = 2.8897873e-07, Final residual = 2.8897873e-07, No Iterations 0
ExecutionTime = 0.52 s  ClockTime = 0 s

runTime.value(): 8.25
snapshotsTime: 8.2
Time = 8.3

DICPCG:  Solving for T, Initial residual = 0.0013372269, Final residual = 2.8741401e-07, No Iterations 4
DICPCG:  Solving for T, Initial residual = 2.8729742e-07, Final residual = 2.8729742e-07, No Iterations 0
DICPCG:  Solving for T, Initial residual = 2.8729742e-07, Final residual = 2.8729742e-07, No Iterations 0
ExecutionTime = 0.52 s  ClockTime = 0 s

Time = 8.35

DICPCG:  Solving for T, Initial residual = 0.0013304183, Final residual = 2.857441e-07, No Iterations 4
DICPCG:  Solving for T, Initial residual = 2.8562969e-07, Final residual = 2.8562969e-07, No Iterations 0
DICPCG:  Solving for T, Initial residual = 2.8562969e-07, Final residual = 2.8562969e-07, No Iterations 0
ExecutionTime = 0.53 s  ClockTime = 0 s

runTime.value(): 8.35
snapshotsTime: 8.3
Time = 8.4

DICPCG:  Solving for T, Initial residual = 0.00132366, Final residual = 2.8408841e-07, No Iterations 4
DICPCG:  Solving for T, Initial residual = 2.8397613e-07, Final residual = 2.8397613e-07, No Iterations 0
DICPCG:  Solving for T, Initial residual = 2.8397613e-07, Final residual = 2.8397613e-07, No Iterations 0
ExecutionTime = 0.53 s  ClockTime = 0 s

Time = 8.45

DICPCG:  Solving for T, Initial residual = 0.001316951, Final residual = 2.824485e-07, No Iterations 4
DICPCG:  Solving for T, Initial residual = 2.823383e-07, Final residual = 2.823383e-07, No Iterations 0
DICPCG:  Solving for T, Initial residual = 2.823383e-07, Final residual = 2.823383e-07, No Iterations 0
ExecutionTime = 0.53 s  ClockTime = 0 s

runTime.value(): 8.45
snapshotsTime: 8.4
Time = 8.5

DICPCG:  Solving for T, Initial residual = 0.0013102908, Final residual = 2.8082365e-07, No Iterations 4
DICPCG:  Solving for T, Initial residual = 2.8071549e-07, Final residual = 2.8071549e-07, No Iterations 0
DICPCG:  Solving for T, Initial residual = 2.8071549e-07, Final residual = 2.8071549e-07, No Iterations 0
ExecutionTime = 0.54 s  ClockTime = 0 s

runTime.value(): 8.5
snapshotsTime: 8.5
Time = 8.55

DICPCG:  Solving for T, Initial residual = 0.0013036785, Final residual = 2.7921391e-07, No Iterations 4
DICPCG:  Solving for T, Initial residual = 2.7910773e-07, Final residual = 2.7910773e-07, No Iterations 0
DICPCG:  Solving for T, Initial residual = 2.7910773e-07, Final residual = 2.7910773e-07, No Iterations 0
ExecutionTime = 0.54 s  ClockTime = 0 s

Time = 8.6

DICPCG:  Solving for T, Initial residual = 0.0012971135, Final residual = 2.7762084e-07, No Iterations 4
DICPCG:  Solving for T, Initial residual = 2.7751661e-07, Final residual = 2.7751661e-07, No Iterations 0
DICPCG:  Solving for T, Initial residual = 2.7751661e-07, Final residual = 2.7751661e-07, No Iterations 0
ExecutionTime = 0.54 s  ClockTime = 0 s

runTime.value(): 8.6
snapshotsTime: 8.6
Time = 8.65

DICPCG:  Solving for T, Initial residual = 0.001290595, Final residual = 2.7604263e-07, No Iterations 4
DICPCG:  Solving for T, Initial residual = 2.759403e-07, Final residual = 2.759403e-07, No Iterations 0
DICPCG:  Solving for T, Initial residual = 2.759403e-07, Final residual = 2.759403e-07, No Iterations 0
ExecutionTime = 0.54 s  ClockTime = 0 s

Time = 8.7

DICPCG:  Solving for T, Initial residual = 0.0012841225, Final residual = 2.7447639e-07, No Iterations 4
DICPCG:  Solving for T, Initial residual = 2.7437592e-07, Final residual = 2.7437592e-07, No Iterations 0
DICPCG:  Solving for T, Initial residual = 2.7437592e-07, Final residual = 2.7437592e-07, No Iterations 0
ExecutionTime = 0.54 s  ClockTime = 0 s

runTime.value(): 8.7
snapshotsTime: 8.7
Time = 8.75

DICPCG:  Solving for T, Initial residual = 0.0012776951, Final residual = 2.7292199e-07, No Iterations 4
DICPCG:  Solving for T, Initial residual = 2.7282333e-07, Final residual = 2.7282333e-07, No Iterations 0
DICPCG:  Solving for T, Initial residual = 2.7282333e-07, Final residual = 2.7282333e-07, No Iterations 0
ExecutionTime = 0.55 s  ClockTime = 0 s

Time = 8.8

DICPCG:  Solving for T, Initial residual = 0.0012713124, Final residual = 2.7137935e-07, No Iterations 4
DICPCG:  Solving for T, Initial residual = 2.7128247e-07, Final residual = 2.7128247e-07, No Iterations 0
DICPCG:  Solving for T, Initial residual = 2.7128247e-07, Final residual = 2.7128247e-07, No Iterations 0
ExecutionTime = 0.55 s  ClockTime = 0 s

runTime.value(): 8.8
snapshotsTime: 8.8
Time = 8.85

DICPCG:  Solving for T, Initial residual = 0.0012649737, Final residual = 2.6984906e-07, No Iterations 4
DICPCG:  Solving for T, Initial residual = 2.6975392e-07, Final residual = 2.6975392e-07, No Iterations 0
DICPCG:  Solving for T, Initial residual = 2.6975392e-07, Final residual = 2.6975392e-07, No Iterations 0
ExecutionTime = 0.55 s  ClockTime = 0 s

Time = 8.9

DICPCG:  Solving for T, Initial residual = 0.0012586783, Final residual = 2.6833062e-07, No Iterations 4
DICPCG:  Solving for T, Initial residual = 2.6823717e-07, Final residual = 2.6823717e-07, No Iterations 0
DICPCG:  Solving for T, Initial residual = 2.6823717e-07, Final residual = 2.6823717e-07, No Iterations 0
ExecutionTime = 0.55 s  ClockTime = 0 s

runTime.value(): 8.9
snapshotsTime: 8.9
Time = 8.95

DICPCG:  Solving for T, Initial residual = 0.0012524257, Final residual = 2.6682441e-07, No Iterations 4
DICPCG:  Solving for T, Initial residual = 2.6673263e-07, Final residual = 2.6673263e-07, No Iterations 0
DICPCG:  Solving for T, Initial residual = 2.6673263e-07, Final residual = 2.6673263e-07, No Iterations 0
ExecutionTime = 0.55 s  ClockTime = 0 s

Time = 9

DICPCG:  Solving for T, Initial residual = 0.0012462154, Final residual = 2.653296e-07, No Iterations 4
DICPCG:  Solving for T, Initial residual = 2.6523944e-07, Final residual = 2.6523944e-07, No Iterations 0
DICPCG:  Solving for T, Initial residual = 2.6523944e-07, Final residual = 2.6523944e-07, No Iterations 0
ExecutionTime = 0.56 s  ClockTime = 0 s

runTime.value(): 9
snapshotsTime: 9
Time = 9.05

DICPCG:  Solving for T, Initial residual = 0.0012400467, Final residual = 2.6384585e-07, No Iterations 4
DICPCG:  Solving for T, Initial residual = 2.6375728e-07, Final residual = 2.6375728e-07, No Iterations 0
DICPCG:  Solving for T, Initial residual = 2.6375728e-07, Final residual = 2.6375728e-07, No Iterations 0
ExecutionTime = 0.56 s  ClockTime = 0 s

Time = 9.1

DICPCG:  Solving for T, Initial residual = 0.0012339191, Final residual = 2.6237334e-07, No Iterations 4
DICPCG:  Solving for T, Initial residual = 2.6228633e-07, Final residual = 2.6228633e-07, No Iterations 0
DICPCG:  Solving for T, Initial residual = 2.6228633e-07, Final residual = 2.6228633e-07, No Iterations 0
ExecutionTime = 0.56 s  ClockTime = 0 s

runTime.value(): 9.1
snapshotsTime: 9.1
Time = 9.15

DICPCG:  Solving for T, Initial residual = 0.001227832, Final residual = 2.6091187e-07, No Iterations 4
DICPCG:  Solving for T, Initial residual = 2.6082639e-07, Final residual = 2.6082639e-07, No Iterations 0
DICPCG:  Solving for T, Initial residual = 2.6082639e-07, Final residual = 2.6082639e-07, No Iterations 0
ExecutionTime = 0.56 s  ClockTime = 0 s

Time = 9.2

DICPCG:  Solving for T, Initial residual = 0.001221785, Final residual = 2.5946255e-07, No Iterations 4
DICPCG:  Solving for T, Initial residual = 2.5937855e-07, Final residual = 2.5937855e-07, No Iterations 0
DICPCG:  Solving for T, Initial residual = 2.5937855e-07, Final residual = 2.5937855e-07, No Iterations 0
ExecutionTime = 0.57 s  ClockTime = 0 s

runTime.value(): 9.2
snapshotsTime: 9.2
Time = 9.25

DICPCG:  Solving for T, Initial residual = 0.0012157776, Final residual = 2.5802482e-07, No Iterations 4
DICPCG:  Solving for T, Initial residual = 2.5794228e-07, Final residual = 2.5794228e-07, No Iterations 0
DICPCG:  Solving for T, Initial residual = 2.5794228e-07, Final residual = 2.5794228e-07, No Iterations 0
ExecutionTime = 0.57 s  ClockTime = 0 s

Time = 9.3

DICPCG:  Solving for T, Initial residual = 0.0012098092, Final residual = 2.5659819e-07, No Iterations 4
DICPCG:  Solving for T, Initial residual = 2.5651709e-07, Final residual = 2.5651709e-07, No Iterations 0
DICPCG:  Solving for T, Initial residual = 2.5651709e-07, Final residual = 2.5651709e-07, No Iterations 0
ExecutionTime = 0.57 s  ClockTime = 0 s

runTime.value(): 9.3
snapshotsTime: 9.3
Time = 9.35

DICPCG:  Solving for T, Initial residual = 0.0012038793, Final residual = 2.5518241e-07, No Iterations 4
DICPCG:  Solving for T, Initial residual = 2.551027e-07, Final residual = 2.551027e-07, No Iterations 0
DICPCG:  Solving for T, Initial residual = 2.551027e-07, Final residual = 2.551027e-07, No Iterations 0
ExecutionTime = 0.57 s  ClockTime = 0 s

Time = 9.4

DICPCG:  Solving for T, Initial residual = 0.0011979875, Final residual = 2.5377757e-07, No Iterations 4
DICPCG:  Solving for T, Initial residual = 2.5369923e-07, Final residual = 2.5369923e-07, No Iterations 0
DICPCG:  Solving for T, Initial residual = 2.5369923e-07, Final residual = 2.5369923e-07, No Iterations 0
ExecutionTime = 0.57 s  ClockTime = 0 s

runTime.value(): 9.4
snapshotsTime: 9.4
Time = 9.45

DICPCG:  Solving for T, Initial residual = 0.0011921333, Final residual = 2.5238397e-07, No Iterations 4
DICPCG:  Solving for T, Initial residual = 2.5230697e-07, Final residual = 2.5230697e-07, No Iterations 0
DICPCG:  Solving for T, Initial residual = 2.5230697e-07, Final residual = 2.5230697e-07, No Iterations 0
ExecutionTime = 0.58 s  ClockTime = 0 s

Time = 9.5

DICPCG:  Solving for T, Initial residual = 0.0011863163, Final residual = 2.5100106e-07, No Iterations 4
DICPCG:  Solving for T, Initial residual = 2.5092537e-07, Final residual = 2.5092537e-07, No Iterations 0
DICPCG:  Solving for T, Initial residual = 2.5092537e-07, Final residual = 2.5092537e-07, No Iterations 0
ExecutionTime = 0.58 s  ClockTime = 0 s

runTime.value(): 9.5
snapshotsTime: 9.5
Time = 9.55

DICPCG:  Solving for T, Initial residual = 0.001180536, Final residual = 2.4962818e-07, No Iterations 4
DICPCG:  Solving for T, Initial residual = 2.4955377e-07, Final residual = 2.4955377e-07, No Iterations 0
DICPCG:  Solving for T, Initial residual = 2.4955377e-07, Final residual = 2.4955377e-07, No Iterations 0
ExecutionTime = 0.58 s  ClockTime = 0 s

Time = 9.6

DICPCG:  Solving for T, Initial residual = 0.0011747919, Final residual = 2.4826562e-07, No Iterations 4
DICPCG:  Solving for T, Initial residual = 2.4819246e-07, Final residual = 2.4819246e-07, No Iterations 0
DICPCG:  Solving for T, Initial residual = 2.4819246e-07, Final residual = 2.4819246e-07, No Iterations 0
ExecutionTime = 0.59 s  ClockTime = 0 s

runTime.value(): 9.6
snapshotsTime: 9.6
Time = 9.65

DICPCG:  Solving for T, Initial residual = 0.0011690838, Final residual = 2.4691293e-07, No Iterations 4
DICPCG:  Solving for T, Initial residual = 2.46841e-07, Final residual = 2.46841e-07, No Iterations 0
DICPCG:  Solving for T, Initial residual = 2.46841e-07, Final residual = 2.46841e-07, No Iterations 0
ExecutionTime = 0.59 s  ClockTime = 0 s

Time = 9.7

DICPCG:  Solving for T, Initial residual = 0.001163411, Final residual = 2.4557062e-07, No Iterations 4
DICPCG:  Solving for T, Initial residual = 2.454999e-07, Final residual = 2.454999e-07, No Iterations 0
DICPCG:  Solving for T, Initial residual = 2.454999e-07, Final residual = 2.454999e-07, No Iterations 0
ExecutionTime = 0.59 s  ClockTime = 0 s

runTime.value(): 9.7
snapshotsTime: 9.7
Time = 9.75

DICPCG:  Solving for T, Initial residual = 0.0011577733, Final residual = 2.4423836e-07, No Iterations 4
DICPCG:  Solving for T, Initial residual = 2.4416882e-07, Final residual = 2.4416882e-07, No Iterations 0
DICPCG:  Solving for T, Initial residual = 2.4416882e-07, Final residual = 2.4416882e-07, No Iterations 0
ExecutionTime = 0.6 s  ClockTime = 0 s

Time = 9.8

DICPCG:  Solving for T, Initial residual = 0.0011521702, Final residual = 2.4291696e-07, No Iterations 4
DICPCG:  Solving for T, Initial residual = 2.4284857e-07, Final residual = 2.4284857e-07, No Iterations 0
DICPCG:  Solving for T, Initial residual = 2.4284857e-07, Final residual = 2.4284857e-07, No Iterations 0
ExecutionTime = 0.6 s  ClockTime = 0 s

runTime.value(): 9.8
snapshotsTime: 9.8
Time = 9.85

DICPCG:  Solving for T, Initial residual = 0.0011466014, Final residual = 2.4160526e-07, No Iterations 4
DICPCG:  Solving for T, Initial residual = 2.41538e-07, Final residual = 2.41538e-07, No Iterations 0
DICPCG:  Solving for T, Initial residual = 2.41538e-07, Final residual = 2.41538e-07, No Iterations 0
ExecutionTime = 0.6 s  ClockTime = 0 s

Time = 9.9

DICPCG:  Solving for T, Initial residual = 0.0011410665, Final residual = 2.4030283e-07, No Iterations 4
DICPCG:  Solving for T, Initial residual = 2.4023668e-07, Final residual = 2.4023668e-07, No Iterations 0
DICPCG:  Solving for T, Initial residual = 2.4023668e-07, Final residual = 2.4023668e-07, No Iterations 0
ExecutionTime = 0.61 s  ClockTime = 0 s

runTime.value(): 9.9
snapshotsTime: 9.9
Time = 9.95

DICPCG:  Solving for T, Initial residual = 0.001135565, Final residual = 2.3901027e-07, No Iterations 4
DICPCG:  Solving for T, Initial residual = 2.3894521e-07, Final residual = 2.3894521e-07, No Iterations 0
DICPCG:  Solving for T, Initial residual = 2.3894521e-07, Final residual = 2.3894521e-07, No Iterations 0
ExecutionTime = 0.61 s  ClockTime = 0 s

Time = 10

DICPCG:  Solving for T, Initial residual = 0.0011300967, Final residual = 2.3772701e-07, No Iterations 4
DICPCG:  Solving for T, Initial residual = 2.3766302e-07, Final residual = 2.3766302e-07, No Iterations 0
DICPCG:  Solving for T, Initial residual = 2.3766302e-07, Final residual = 2.3766302e-07, No Iterations 0
ExecutionTime = 0.66 s  ClockTime = 0 s

runTime.value(): 10
snapshotsTime: 10
Time = 10.05

DICPCG:  Solving for T, Initial residual = 0.0011246611, Final residual = 2.3645407e-07, No Iterations 4
DICPCG:  Solving for T, Initial residual = 2.3639112e-07, Final residual = 2.3639112e-07, No Iterations 0
DICPCG:  Solving for T, Initial residual = 2.3639112e-07, Final residual = 2.3639112e-07, No Iterations 0
ExecutionTime = 0.66 s  ClockTime = 0 s

Time = 10.1

DICPCG:  Solving for T, Initial residual = 0.001119258, Final residual = 2.3519025e-07, No Iterations 4
[...]
DICPCG:  Solving for T, Initial residual = 9.969285e-07, Final residual = 9.969285e-07, No Iterations 0
ExecutionTime = 4.86 s  ClockTime = 5 s

Time = 97.55

DICPCG:  Solving for T, Initial residual = 9.969285e-07, Final residual = 9.969285e-07, No Iterations 0
DICPCG:  Solving for T, Initial residual = 9.969285e-07, Final residual = 9.969285e-07, No Iterations 0
DICPCG:  Solving for T, Initial residual = 9.969285e-07, Final residual = 9.969285e-07, No Iterations 0
ExecutionTime = 4.86 s  ClockTime = 5 s

runTime.value(): 97.55
snapshotsTime: 97.5
Time = 97.6

DICPCG:  Solving for T, Initial residual = 9.969285e-07, Final residual = 9.969285e-07, No Iterations 0
DICPCG:  Solving for T, Initial residual = 9.969285e-07, Final residual = 9.969285e-07, No Iterations 0
DICPCG:  Solving for T, Initial residual = 9.969285e-07, Final residual = 9.969285e-07, No Iterations 0
ExecutionTime = 4.87 s  ClockTime = 5 s

Time = 97.65

DICPCG:  Solving for T, Initial residual = 9.969285e-07, Final residual = 9.969285e-07, No Iterations 0
DICPCG:  Solving for T, Initial residual = 9.969285e-07, Final residual = 9.969285e-07, No Iterations 0
DICPCG:  Solving for T, Initial residual = 9.969285e-07, Final residual = 9.969285e-07, No Iterations 0
ExecutionTime = 4.87 s  ClockTime = 5 s

runTime.value(): 97.65
snapshotsTime: 97.6
Time = 97.7

DICPCG:  Solving for T, Initial residual = 9.969285e-07, Final residual = 9.969285e-07, No Iterations 0
DICPCG:  Solving for T, Initial residual = 9.969285e-07, Final residual = 9.969285e-07, No Iterations 0
DICPCG:  Solving for T, Initial residual = 9.969285e-07, Final residual = 9.969285e-07, No Iterations 0
ExecutionTime = 4.87 s  ClockTime = 5 s

Time = 97.75

DICPCG:  Solving for T, Initial residual = 9.969285e-07, Final residual = 9.969285e-07, No Iterations 0
DICPCG:  Solving for T, Initial residual = 9.969285e-07, Final residual = 9.969285e-07, No Iterations 0
DICPCG:  Solving for T, Initial residual = 9.969285e-07, Final residual = 9.969285e-07, No Iterations 0
ExecutionTime = 4.87 s  ClockTime = 5 s

runTime.value(): 97.75
snapshotsTime: 97.7
Time = 97.8

DICPCG:  Solving for T, Initial residual = 9.969285e-07, Final residual = 9.969285e-07, No Iterations 0
DICPCG:  Solving for T, Initial residual = 9.969285e-07, Final residual = 9.969285e-07, No Iterations 0
DICPCG:  Solving for T, Initial residual = 9.969285e-07, Final residual = 9.969285e-07, No Iterations 0
ExecutionTime = 4.87 s  ClockTime = 5 s

Time = 97.85

DICPCG:  Solving for T, Initial residual = 9.969285e-07, Final residual = 9.969285e-07, No Iterations 0
DICPCG:  Solving for T, Initial residual = 9.969285e-07, Final residual = 9.969285e-07, No Iterations 0
DICPCG:  Solving for T, Initial residual = 9.969285e-07, Final residual = 9.969285e-07, No Iterations 0
ExecutionTime = 4.87 s  ClockTime = 5 s

runTime.value(): 97.85
snapshotsTime: 97.8
Time = 97.9

DICPCG:  Solving for T, Initial residual = 9.969285e-07, Final residual = 9.969285e-07, No Iterations 0
DICPCG:  Solving for T, Initial residual = 9.969285e-07, Final residual = 9.969285e-07, No Iterations 0
DICPCG:  Solving for T, Initial residual = 9.969285e-07, Final residual = 9.969285e-07, No Iterations 0
ExecutionTime = 4.87 s  ClockTime = 5 s

Time = 97.95

DICPCG:  Solving for T, Initial residual = 9.969285e-07, Final residual = 9.969285e-07, No Iterations 0
DICPCG:  Solving for T, Initial residual = 9.969285e-07, Final residual = 9.969285e-07, No Iterations 0
DICPCG:  Solving for T, Initial residual = 9.969285e-07, Final residual = 9.969285e-07, No Iterations 0
ExecutionTime = 4.87 s  ClockTime = 5 s

runTime.value(): 97.95
snapshotsTime: 97.9
Time = 98

DICPCG:  Solving for T, Initial residual = 9.969285e-07, Final residual = 9.969285e-07, No Iterations 0
DICPCG:  Solving for T, Initial residual = 9.969285e-07, Final residual = 9.969285e-07, No Iterations 0
DICPCG:  Solving for T, Initial residual = 9.969285e-07, Final residual = 9.969285e-07, No Iterations 0
ExecutionTime = 4.87 s  ClockTime = 5 s

Time = 98.05

DICPCG:  Solving for T, Initial residual = 9.969285e-07, Final residual = 9.969285e-07, No Iterations 0
DICPCG:  Solving for T, Initial residual = 9.969285e-07, Final residual = 9.969285e-07, No Iterations 0
DICPCG:  Solving for T, Initial residual = 9.969285e-07, Final residual = 9.969285e-07, No Iterations 0
ExecutionTime = 4.88 s  ClockTime = 5 s

runTime.value(): 98.05
snapshotsTime: 98
Time = 98.1

DICPCG:  Solving for T, Initial residual = 9.969285e-07, Final residual = 9.969285e-07, No Iterations 0
DICPCG:  Solving for T, Initial residual = 9.969285e-07, Final residual = 9.969285e-07, No Iterations 0
DICPCG:  Solving for T, Initial residual = 9.969285e-07, Final residual = 9.969285e-07, No Iterations 0
ExecutionTime = 4.88 s  ClockTime = 5 s

Time = 98.15

DICPCG:  Solving for T, Initial residual = 9.969285e-07, Final residual = 9.969285e-07, No Iterations 0
DICPCG:  Solving for T, Initial residual = 9.969285e-07, Final residual = 9.969285e-07, No Iterations 0
DICPCG:  Solving for T, Initial residual = 9.969285e-07, Final residual = 9.969285e-07, No Iterations 0
ExecutionTime = 4.88 s  ClockTime = 5 s

runTime.value(): 98.15
snapshotsTime: 98.1
Time = 98.2

DICPCG:  Solving for T, Initial residual = 9.969285e-07, Final residual = 9.969285e-07, No Iterations 0
DICPCG:  Solving for T, Initial residual = 9.969285e-07, Final residual = 9.969285e-07, No Iterations 0
DICPCG:  Solving for T, Initial residual = 9.969285e-07, Final residual = 9.969285e-07, No Iterations 0
ExecutionTime = 4.88 s  ClockTime = 5 s

Time = 98.25

DICPCG:  Solving for T, Initial residual = 9.969285e-07, Final residual = 9.969285e-07, No Iterations 0
DICPCG:  Solving for T, Initial residual = 9.969285e-07, Final residual = 9.969285e-07, No Iterations 0
DICPCG:  Solving for T, Initial residual = 9.969285e-07, Final residual = 9.969285e-07, No Iterations 0
ExecutionTime = 4.88 s  ClockTime = 5 s

runTime.value(): 98.25
snapshotsTime: 98.2
Time = 98.3

DICPCG:  Solving for T, Initial residual = 9.969285e-07, Final residual = 9.969285e-07, No Iterations 0
DICPCG:  Solving for T, Initial residual = 9.969285e-07, Final residual = 9.969285e-07, No Iterations 0
DICPCG:  Solving for T, Initial residual = 9.969285e-07, Final residual = 9.969285e-07, No Iterations 0
ExecutionTime = 4.88 s  ClockTime = 5 s

Time = 98.35

DICPCG:  Solving for T, Initial residual = 9.969285e-07, Final residual = 9.969285e-07, No Iterations 0
DICPCG:  Solving for T, Initial residual = 9.969285e-07, Final residual = 9.969285e-07, No Iterations 0
DICPCG:  Solving for T, Initial residual = 9.969285e-07, Final residual = 9.969285e-07, No Iterations 0
ExecutionTime = 4.88 s  ClockTime = 5 s

runTime.value(): 98.35
snapshotsTime: 98.3
Time = 98.4

DICPCG:  Solving for T, Initial residual = 9.969285e-07, Final residual = 9.969285e-07, No Iterations 0
DICPCG:  Solving for T, Initial residual = 9.969285e-07, Final residual = 9.969285e-07, No Iterations 0
DICPCG:  Solving for T, Initial residual = 9.969285e-07, Final residual = 9.969285e-07, No Iterations 0
ExecutionTime = 4.89 s  ClockTime = 5 s

Time = 98.45

DICPCG:  Solving for T, Initial residual = 9.969285e-07, Final residual = 9.969285e-07, No Iterations 0
DICPCG:  Solving for T, Initial residual = 9.969285e-07, Final residual = 9.969285e-07, No Iterations 0
DICPCG:  Solving for T, Initial residual = 9.969285e-07, Final residual = 9.969285e-07, No Iterations 0
ExecutionTime = 4.89 s  ClockTime = 5 s

runTime.value(): 98.45
snapshotsTime: 98.4
Time = 98.5

DICPCG:  Solving for T, Initial residual = 9.969285e-07, Final residual = 9.969285e-07, No Iterations 0
DICPCG:  Solving for T, Initial residual = 9.969285e-07, Final residual = 9.969285e-07, No Iterations 0
DICPCG:  Solving for T, Initial residual = 9.969285e-07, Final residual = 9.969285e-07, No Iterations 0
ExecutionTime = 4.89 s  ClockTime = 5 s

Time = 98.55

DICPCG:  Solving for T, Initial residual = 9.969285e-07, Final residual = 9.969285e-07, No Iterations 0
DICPCG:  Solving for T, Initial residual = 9.969285e-07, Final residual = 9.969285e-07, No Iterations 0
DICPCG:  Solving for T, Initial residual = 9.969285e-07, Final residual = 9.969285e-07, No Iterations 0
ExecutionTime = 4.89 s  ClockTime = 5 s

runTime.value(): 98.55
snapshotsTime: 98.5
Time = 98.6

DICPCG:  Solving for T, Initial residual = 9.969285e-07, Final residual = 9.969285e-07, No Iterations 0
DICPCG:  Solving for T, Initial residual = 9.969285e-07, Final residual = 9.969285e-07, No Iterations 0
DICPCG:  Solving for T, Initial residual = 9.969285e-07, Final residual = 9.969285e-07, No Iterations 0
ExecutionTime = 4.89 s  ClockTime = 5 s

Time = 98.65

DICPCG:  Solving for T, Initial residual = 9.969285e-07, Final residual = 9.969285e-07, No Iterations 0
DICPCG:  Solving for T, Initial residual = 9.969285e-07, Final residual = 9.969285e-07, No Iterations 0
DICPCG:  Solving for T, Initial residual = 9.969285e-07, Final residual = 9.969285e-07, No Iterations 0
ExecutionTime = 4.89 s  ClockTime = 5 s

runTime.value(): 98.65
snapshotsTime: 98.6
Time = 98.7

DICPCG:  Solving for T, Initial residual = 9.969285e-07, Final residual = 9.969285e-07, No Iterations 0
DICPCG:  Solving for T, Initial residual = 9.969285e-07, Final residual = 9.969285e-07, No Iterations 0
DICPCG:  Solving for T, Initial residual = 9.969285e-07, Final residual = 9.969285e-07, No Iterations 0
ExecutionTime = 4.89 s  ClockTime = 5 s

Time = 98.75

DICPCG:  Solving for T, Initial residual = 9.969285e-07, Final residual = 9.969285e-07, No Iterations 0
DICPCG:  Solving for T, Initial residual = 9.969285e-07, Final residual = 9.969285e-07, No Iterations 0
DICPCG:  Solving for T, Initial residual = 9.969285e-07, Final residual = 9.969285e-07, No Iterations 0
ExecutionTime = 4.9 s  ClockTime = 5 s

runTime.value(): 98.75
snapshotsTime: 98.7
Time = 98.8

DICPCG:  Solving for T, Initial residual = 9.969285e-07, Final residual = 9.969285e-07, No Iterations 0
DICPCG:  Solving for T, Initial residual = 9.969285e-07, Final residual = 9.969285e-07, No Iterations 0
DICPCG:  Solving for T, Initial residual = 9.969285e-07, Final residual = 9.969285e-07, No Iterations 0
ExecutionTime = 4.9 s  ClockTime = 5 s

Time = 98.85

DICPCG:  Solving for T, Initial residual = 9.969285e-07, Final residual = 9.969285e-07, No Iterations 0
DICPCG:  Solving for T, Initial residual = 9.969285e-07, Final residual = 9.969285e-07, No Iterations 0
DICPCG:  Solving for T, Initial residual = 9.969285e-07, Final residual = 9.969285e-07, No Iterations 0
ExecutionTime = 4.9 s  ClockTime = 5 s

runTime.value(): 98.85
snapshotsTime: 98.8
Time = 98.9

DICPCG:  Solving for T, Initial residual = 9.969285e-07, Final residual = 9.969285e-07, No Iterations 0
DICPCG:  Solving for T, Initial residual = 9.969285e-07, Final residual = 9.969285e-07, No Iterations 0
DICPCG:  Solving for T, Initial residual = 9.969285e-07, Final residual = 9.969285e-07, No Iterations 0
ExecutionTime = 4.9 s  ClockTime = 5 s

Time = 98.95

DICPCG:  Solving for T, Initial residual = 9.969285e-07, Final residual = 9.969285e-07, No Iterations 0
DICPCG:  Solving for T, Initial residual = 9.969285e-07, Final residual = 9.969285e-07, No Iterations 0
DICPCG:  Solving for T, Initial residual = 9.969285e-07, Final residual = 9.969285e-07, No Iterations 0
ExecutionTime = 4.9 s  ClockTime = 5 s

runTime.value(): 98.95
snapshotsTime: 98.9
Time = 99

DICPCG:  Solving for T, Initial residual = 9.969285e-07, Final residual = 9.969285e-07, No Iterations 0
DICPCG:  Solving for T, Initial residual = 9.969285e-07, Final residual = 9.969285e-07, No Iterations 0
DICPCG:  Solving for T, Initial residual = 9.969285e-07, Final residual = 9.969285e-07, No Iterations 0
ExecutionTime = 4.9 s  ClockTime = 5 s

Time = 99.05

DICPCG:  Solving for T, Initial residual = 9.969285e-07, Final residual = 9.969285e-07, No Iterations 0
DICPCG:  Solving for T, Initial residual = 9.969285e-07, Final residual = 9.969285e-07, No Iterations 0
DICPCG:  Solving for T, Initial residual = 9.969285e-07, Final residual = 9.969285e-07, No Iterations 0
ExecutionTime = 4.9 s  ClockTime = 5 s

runTime.value(): 99.05
snapshotsTime: 99
Time = 99.1

DICPCG:  Solving for T, Initial residual = 9.969285e-07, Final residual = 9.969285e-07, No Iterations 0
DICPCG:  Solving for T, Initial residual = 9.969285e-07, Final residual = 9.969285e-07, No Iterations 0
DICPCG:  Solving for T, Initial residual = 9.969285e-07, Final residual = 9.969285e-07, No Iterations 0
ExecutionTime = 4.91 s  ClockTime = 5 s

Time = 99.15

DICPCG:  Solving for T, Initial residual = 9.969285e-07, Final residual = 9.969285e-07, No Iterations 0
DICPCG:  Solving for T, Initial residual = 9.969285e-07, Final residual = 9.969285e-07, No Iterations 0
DICPCG:  Solving for T, Initial residual = 9.969285e-07, Final residual = 9.969285e-07, No Iterations 0
ExecutionTime = 4.91 s  ClockTime = 5 s

runTime.value(): 99.15
snapshotsTime: 99.1
Time = 99.2

DICPCG:  Solving for T, Initial residual = 9.969285e-07, Final residual = 9.969285e-07, No Iterations 0
DICPCG:  Solving for T, Initial residual = 9.969285e-07, Final residual = 9.969285e-07, No Iterations 0
DICPCG:  Solving for T, Initial residual = 9.969285e-07, Final residual = 9.969285e-07, No Iterations 0
ExecutionTime = 4.91 s  ClockTime = 5 s

Time = 99.25

DICPCG:  Solving for T, Initial residual = 9.969285e-07, Final residual = 9.969285e-07, No Iterations 0
DICPCG:  Solving for T, Initial residual = 9.969285e-07, Final residual = 9.969285e-07, No Iterations 0
DICPCG:  Solving for T, Initial residual = 9.969285e-07, Final residual = 9.969285e-07, No Iterations 0
ExecutionTime = 4.91 s  ClockTime = 5 s

runTime.value(): 99.25
snapshotsTime: 99.2
Time = 99.3

DICPCG:  Solving for T, Initial residual = 9.969285e-07, Final residual = 9.969285e-07, No Iterations 0
DICPCG:  Solving for T, Initial residual = 9.969285e-07, Final residual = 9.969285e-07, No Iterations 0
DICPCG:  Solving for T, Initial residual = 9.969285e-07, Final residual = 9.969285e-07, No Iterations 0
ExecutionTime = 4.92 s  ClockTime = 5 s

Time = 99.35

DICPCG:  Solving for T, Initial residual = 9.969285e-07, Final residual = 9.969285e-07, No Iterations 0
DICPCG:  Solving for T, Initial residual = 9.969285e-07, Final residual = 9.969285e-07, No Iterations 0
DICPCG:  Solving for T, Initial residual = 9.969285e-07, Final residual = 9.969285e-07, No Iterations 0
ExecutionTime = 4.92 s  ClockTime = 5 s

runTime.value(): 99.35
snapshotsTime: 99.3
Time = 99.4

DICPCG:  Solving for T, Initial residual = 9.969285e-07, Final residual = 9.969285e-07, No Iterations 0
DICPCG:  Solving for T, Initial residual = 9.969285e-07, Final residual = 9.969285e-07, No Iterations 0
DICPCG:  Solving for T, Initial residual = 9.969285e-07, Final residual = 9.969285e-07, No Iterations 0
ExecutionTime = 4.92 s  ClockTime = 5 s

Time = 99.45

DICPCG:  Solving for T, Initial residual = 9.969285e-07, Final residual = 9.969285e-07, No Iterations 0
DICPCG:  Solving for T, Initial residual = 9.969285e-07, Final residual = 9.969285e-07, No Iterations 0
DICPCG:  Solving for T, Initial residual = 9.969285e-07, Final residual = 9.969285e-07, No Iterations 0
ExecutionTime = 4.92 s  ClockTime = 5 s

runTime.value(): 99.45
snapshotsTime: 99.4
Time = 99.5

DICPCG:  Solving for T, Initial residual = 9.969285e-07, Final residual = 9.969285e-07, No Iterations 0
DICPCG:  Solving for T, Initial residual = 9.969285e-07, Final residual = 9.969285e-07, No Iterations 0
DICPCG:  Solving for T, Initial residual = 9.969285e-07, Final residual = 9.969285e-07, No Iterations 0
ExecutionTime = 4.92 s  ClockTime = 5 s

Time = 99.55

DICPCG:  Solving for T, Initial residual = 9.969285e-07, Final residual = 9.969285e-07, No Iterations 0
DICPCG:  Solving for T, Initial residual = 9.969285e-07, Final residual = 9.969285e-07, No Iterations 0
DICPCG:  Solving for T, Initial residual = 9.969285e-07, Final residual = 9.969285e-07, No Iterations 0
ExecutionTime = 4.93 s  ClockTime = 5 s

runTime.value(): 99.55
snapshotsTime: 99.5
Time = 99.6

DICPCG:  Solving for T, Initial residual = 9.969285e-07, Final residual = 9.969285e-07, No Iterations 0
DICPCG:  Solving for T, Initial residual = 9.969285e-07, Final residual = 9.969285e-07, No Iterations 0
DICPCG:  Solving for T, Initial residual = 9.969285e-07, Final residual = 9.969285e-07, No Iterations 0
ExecutionTime = 4.93 s  ClockTime = 5 s

Time = 99.65

DICPCG:  Solving for T, Initial residual = 9.969285e-07, Final residual = 9.969285e-07, No Iterations 0
DICPCG:  Solving for T, Initial residual = 9.969285e-07, Final residual = 9.969285e-07, No Iterations 0
DICPCG:  Solving for T, Initial residual = 9.969285e-07, Final residual = 9.969285e-07, No Iterations 0
ExecutionTime = 4.93 s  ClockTime = 5 s

runTime.value(): 99.65
snapshotsTime: 99.6
Time = 99.7

DICPCG:  Solving for T, Initial residual = 9.969285e-07, Final residual = 9.969285e-07, No Iterations 0
DICPCG:  Solving for T, Initial residual = 9.969285e-07, Final residual = 9.969285e-07, No Iterations 0
DICPCG:  Solving for T, Initial residual = 9.969285e-07, Final residual = 9.969285e-07, No Iterations 0
ExecutionTime = 4.93 s  ClockTime = 5 s

Time = 99.75

DICPCG:  Solving for T, Initial residual = 9.969285e-07, Final residual = 9.969285e-07, No Iterations 0
DICPCG:  Solving for T, Initial residual = 9.969285e-07, Final residual = 9.969285e-07, No Iterations 0
DICPCG:  Solving for T, Initial residual = 9.969285e-07, Final residual = 9.969285e-07, No Iterations 0
ExecutionTime = 4.93 s  ClockTime = 5 s

runTime.value(): 99.75
snapshotsTime: 99.7
Time = 99.8

DICPCG:  Solving for T, Initial residual = 9.969285e-07, Final residual = 9.969285e-07, No Iterations 0
DICPCG:  Solving for T, Initial residual = 9.969285e-07, Final residual = 9.969285e-07, No Iterations 0
DICPCG:  Solving for T, Initial residual = 9.969285e-07, Final residual = 9.969285e-07, No Iterations 0
ExecutionTime = 4.93 s  ClockTime = 5 s

Time = 99.85

DICPCG:  Solving for T, Initial residual = 9.969285e-07, Final residual = 9.969285e-07, No Iterations 0
DICPCG:  Solving for T, Initial residual = 9.969285e-07, Final residual = 9.969285e-07, No Iterations 0
DICPCG:  Solving for T, Initial residual = 9.969285e-07, Final residual = 9.969285e-07, No Iterations 0
ExecutionTime = 4.93 s  ClockTime = 5 s

runTime.value(): 99.85
snapshotsTime: 99.8
Time = 99.9

DICPCG:  Solving for T, Initial residual = 9.969285e-07, Final residual = 9.969285e-07, No Iterations 0
DICPCG:  Solving for T, Initial residual = 9.969285e-07, Final residual = 9.969285e-07, No Iterations 0
DICPCG:  Solving for T, Initial residual = 9.969285e-07, Final residual = 9.969285e-07, No Iterations 0
ExecutionTime = 4.94 s  ClockTime = 5 s

Time = 99.95

DICPCG:  Solving for T, Initial residual = 9.969285e-07, Final residual = 9.969285e-07, No Iterations 0
DICPCG:  Solving for T, Initial residual = 9.969285e-07, Final residual = 9.969285e-07, No Iterations 0
DICPCG:  Solving for T, Initial residual = 9.969285e-07, Final residual = 9.969285e-07, No Iterations 0
ExecutionTime = 4.94 s  ClockTime = 5 s

runTime.value(): 99.95
snapshotsTime: 99.9
Time = 100

DICPCG:  Solving for T, Initial residual = 9.969285e-07, Final residual = 9.969285e-07, No Iterations 0
DICPCG:  Solving for T, Initial residual = 9.969285e-07, Final residual = 9.969285e-07, No Iterations 0
DICPCG:  Solving for T, Initial residual = 9.969285e-07, Final residual = 9.969285e-07, No Iterations 0
ExecutionTime = 4.97 s  ClockTime = 5 s

End

The simulation of FOM is finished in 4.97 s.
snapshots number is: 1000
snapshotsTime is: 100
The SVD process of snapshots are finished in 61.57 s.
write svd data

write Snapshot Matrix: (4000 1000)
write spatial mode Matrix: (4000 1000)
write temporal coefficient Matrix: (1000 1000)
write eigenvalue: 1000
laplacian of modes Matrix: (4000 6)
The solver is finished in 66.92 s.

