/*---------------------------------------------------------------------------*\
| =========                 |                                                 |
| \\      /  F ield         | OpenFOAM: The Open Source CFD Toolbox           |
|  \\    /   O peration     | Version:  v2106                                 |
|   \\  /    A nd           | Website:  www.openfoam.com                      |
|    \\/     M anipulation  |                                                 |
\*---------------------------------------------------------------------------*/
Build  : _c15bfde3cb-20210624 OPENFOAM=2106
Arch   : "LSB;label=32;scalar=64"
Exec   : laplacianFoamDiscGalk
Date   : Oct 26 2022
Time   : 09:28:16
Host   : ites-fps-ruanLX
PID    : 11669
I/O    : uncollated
Case   : /home/ruan/Desktop/Shenhui_ruan/OpenFOAM/OpenFOAMsourcecode/ROM_Discontinuity_Galerkin/Block1
nProcs : 1
trapFpe: Floating point exception trapping enabled (FOAM_SIGFPE).
fileModificationChecking : Monitoring run-time modified files using timeStampMaster (fileModificationSkew 5, maxFileModificationPolls 20)
allowSystemOperations : Allowing user-supplied system call operations

// * * * * * * * * * * * * * * * * * * * * * * * * * * * * * * * * * * * * * //
Create time

Create mesh for time = 0


SIMPLE: no convergence criteria found. Calculations will run for 50 steps.

Reading field T

Reading diffusivity DT



--> FOAM FATAL ERROR: (openfoam-2106)
cannot find file "/home/ruan/Desktop/Shenhui_ruan/OpenFOAM/OpenFOAMsourcecode/ROM_Discontinuity_Galerkin/Block1/constant/transportProperties"

    From virtual Foam::autoPtr<Foam::ISstream> Foam::fileOperations::uncollatedFileOperation::readStream(Foam::regIOobject&, const Foam::fileName&, const Foam::word&, bool) const
    in file global/fileOperations/uncollatedFileOperation/uncollatedFileOperation.C at line 542.

FOAM exiting

