/*---------------------------------------------------------------------------*\
| =========                 |                                                 |
| \\      /  F ield         | OpenFOAM: The Open Source CFD Toolbox           |
|  \\    /   O peration     | Version:  v2106                                 |
|   \\  /    A nd           | Website:  www.openfoam.com                      |
|    \\/     M anipulation  |                                                 |
\*---------------------------------------------------------------------------*/
Build  : _c15bfde3cb-20210624 OPENFOAM=2106
Arch   : "LSB;label=32;scalar=64"
Exec   : ROMDiscGalk
Date   : Oct 30 2022
Time   : 23:58:49
Host   : Sh-Ruan-matebook
PID    : 2316
I/O    : uncollated
Case   : /home/shenhui_ruan/gitFolder/RshOpenFOAMSourceCode/ROM_Discontinuity_Galerkin/Block1
nProcs : 1
trapFpe: Floating point exception trapping enabled (FOAM_SIGFPE).
fileModificationChecking : Monitoring run-time modified files using timeStampMaster (fileModificationSkew 5, maxFileModificationPolls 20)
allowSystemOperations : Allowing user-supplied system call operations

// * * * * * * * * * * * * * * * * * * * * * * * * * * * * * * * * * * * * * //
Create time

Create mesh for time = 0

matchPatchID: 2(0 1)

test1: 0, 0type            fixedValue;
value           nonuniform List<scalar> 
100
(
-0.023866956
-0.023866956
-0.023866956
-0.023866957
-0.023866957
-0.023866957
-0.023866957
-0.023866957
-0.023866957
-0.023866957
-0.023866956
-0.023866956
-0.023866956
-0.023866957
-0.023866957
-0.023866957
-0.023866957
-0.023866958
-0.023866957
-0.023866957
-0.023866956
-0.023866956
-0.023866957
-0.023866957
-0.023866957
-0.023866957
-0.023866958
-0.023866958
-0.023866957
-0.023866957
-0.023866957
-0.023866957
-0.023866957
-0.023866957
-0.023866957
-0.023866957
-0.023866958
-0.023866958
-0.023866957
-0.023866957
-0.023866957
-0.023866957
-0.023866957
-0.023866957
-0.023866957
-0.023866957
-0.023866957
-0.023866957
-0.023866957
-0.023866957
-0.023866957
-0.023866957
-0.023866957
-0.023866957
-0.023866957
-0.023866957
-0.023866957
-0.023866957
-0.023866957
-0.023866957
-0.023866957
-0.023866957
-0.023866958
-0.023866958
-0.023866957
-0.023866957
-0.023866957
-0.023866957
-0.023866957
-0.023866957
-0.023866957
-0.023866958
-0.023866958
-0.023866958
-0.023866957
-0.023866957
-0.023866957
-0.023866957
-0.023866957
-0.023866956
-0.023866957
-0.023866957
-0.023866957
-0.023866957
-0.023866957
-0.023866957
-0.023866957
-0.023866957
-0.023866956
-0.023866956
-0.023866957
-0.023866957
-0.023866957
-0.023866957
-0.023866957
-0.023866957
-0.023866957
-0.023866956
-0.023866956
-0.023866956
)
;

test1: 0, 1type            fixedValue;
value           nonuniform List<scalar> 
100
(
-0.023866956
-0.023866956
-0.023866956
-0.023866957
-0.023866957
-0.023866957
-0.023866957
-0.023866957
-0.023866957
-0.023866957
-0.023866956
-0.023866956
-0.023866956
-0.023866957
-0.023866957
-0.023866957
-0.023866957
-0.023866958
-0.023866957
-0.023866957
-0.023866956
-0.023866956
-0.023866957
-0.023866957
-0.023866957
-0.023866957
-0.023866958
-0.023866958
-0.023866957
-0.023866957
-0.023866957
-0.023866957
-0.023866957
-0.023866957
-0.023866957
-0.023866957
-0.023866958
-0.023866958
-0.023866957
-0.023866957
-0.023866957
-0.023866957
-0.023866957
-0.023866957
-0.023866957
-0.023866957
-0.023866957
-0.023866957
-0.023866957
-0.023866957
-0.023866957
-0.023866957
-0.023866957
-0.023866957
-0.023866957
-0.023866957
-0.023866957
-0.023866957
-0.023866957
-0.023866957
-0.023866957
-0.023866957
-0.023866958
-0.023866958
-0.023866957
-0.023866957
-0.023866957
-0.023866957
-0.023866957
-0.023866957
-0.023866957
-0.023866958
-0.023866958
-0.023866958
-0.023866957
-0.023866957
-0.023866957
-0.023866957
-0.023866957
-0.023866956
-0.023866957
-0.023866957
-0.023866957
-0.023866957
-0.023866957
-0.023866957
-0.023866957
-0.023866957
-0.023866956
-0.023866956
-0.023866957
-0.023866957
-0.023866957
-0.023866957
-0.023866957
-0.023866957
-0.023866957
-0.023866956
-0.023866956
-0.023866956
)
;

test1: 0, 2type            fixedValue;
value           nonuniform List<scalar> 
100
(
-0.023866956
-0.023866956
-0.023866956
-0.023866957
-0.023866957
-0.023866957
-0.023866957
-0.023866957
-0.023866957
-0.023866957
-0.023866956
-0.023866956
-0.023866956
-0.023866957
-0.023866957
-0.023866957
-0.023866957
-0.023866958
-0.023866957
-0.023866957
-0.023866956
-0.023866956
-0.023866957
-0.023866957
-0.023866957
-0.023866957
-0.023866958
-0.023866958
-0.023866957
-0.023866957
-0.023866957
-0.023866957
-0.023866957
-0.023866957
-0.023866957
-0.023866957
-0.023866958
-0.023866958
-0.023866957
-0.023866957
-0.023866957
-0.023866957
-0.023866957
-0.023866957
-0.023866957
-0.023866957
-0.023866957
-0.023866957
-0.023866957
-0.023866957
-0.023866957
-0.023866957
-0.023866957
-0.023866957
-0.023866957
-0.023866957
-0.023866957
-0.023866957
-0.023866957
-0.023866957
-0.023866957
-0.023866957
-0.023866958
-0.023866958
-0.023866957
-0.023866957
-0.023866957
-0.023866957
-0.023866957
-0.023866957
-0.023866957
-0.023866958
-0.023866958
-0.023866958
-0.023866957
-0.023866957
-0.023866957
-0.023866957
-0.023866957
-0.023866956
-0.023866957
-0.023866957
-0.023866957
-0.023866957
-0.023866957
-0.023866957
-0.023866957
-0.023866957
-0.023866956
-0.023866956
-0.023866957
-0.023866957
-0.023866957
-0.023866957
-0.023866957
-0.023866957
-0.023866957
-0.023866956
-0.023866956
-0.023866956
)
;

test1: 1, 0type            fixedValue;
value           nonuniform List<scalar> 
100
(
0.037870495
0.037870503
0.037870537
0.037870563
0.037870573
0.037870586
0.0378706
0.0378706
0.037870587
0.037870575
0.037870503
0.037870519
0.037870549
0.03787057
0.037870581
0.037870594
0.03787061
0.037870611
0.037870593
0.037870581
0.037870537
0.037870549
0.037870574
0.037870588
0.037870592
0.037870607
0.037870627
0.037870626
0.037870604
0.03787059
0.037870563
0.03787057
0.037870588
0.037870593
0.03787059
0.037870604
0.037870625
0.037870623
0.037870601
0.037870585
0.037870573
0.037870581
0.037870592
0.03787059
0.037870582
0.037870589
0.037870605
0.037870604
0.037870584
0.037870569
0.037870586
0.037870594
0.037870607
0.037870604
0.037870589
0.037870586
0.037870596
0.037870593
0.037870572
0.037870557
0.0378706
0.03787061
0.037870627
0.037870625
0.037870605
0.037870596
0.0378706
0.037870591
0.037870565
0.03787055
0.0378706
0.037870611
0.037870626
0.037870623
0.037870604
0.037870593
0.037870591
0.037870576
0.037870544
0.037870526
0.037870587
0.037870593
0.037870604
0.037870601
0.037870584
0.037870572
0.037870565
0.037870544
0.037870512
0.037870493
0.037870575
0.037870581
0.03787059
0.037870585
0.037870569
0.037870557
0.03787055
0.037870526
0.037870493
0.037870481
)
;

test1: 1, 1type            fixedValue;
value           nonuniform List<scalar> 
100
(
0.037870495
0.037870503
0.037870537
0.037870563
0.037870573
0.037870586
0.0378706
0.0378706
0.037870587
0.037870575
0.037870503
0.037870519
0.037870549
0.03787057
0.037870581
0.037870594
0.03787061
0.037870611
0.037870593
0.037870581
0.037870537
0.037870549
0.037870574
0.037870588
0.037870592
0.037870607
0.037870627
0.037870626
0.037870604
0.03787059
0.037870563
0.03787057
0.037870588
0.037870593
0.03787059
0.037870604
0.037870625
0.037870623
0.037870601
0.037870585
0.037870573
0.037870581
0.037870592
0.03787059
0.037870582
0.037870589
0.037870605
0.037870604
0.037870584
0.037870569
0.037870586
0.037870594
0.037870607
0.037870604
0.037870589
0.037870586
0.037870596
0.037870593
0.037870572
0.037870557
0.0378706
0.03787061
0.037870627
0.037870625
0.037870605
0.037870596
0.0378706
0.037870591
0.037870565
0.03787055
0.0378706
0.037870611
0.037870626
0.037870623
0.037870604
0.037870593
0.037870591
0.037870576
0.037870544
0.037870526
0.037870587
0.037870593
0.037870604
0.037870601
0.037870584
0.037870572
0.037870565
0.037870544
0.037870512
0.037870493
0.037870575
0.037870581
0.03787059
0.037870585
0.037870569
0.037870557
0.03787055
0.037870526
0.037870493
0.037870481
)
;

test1: 1, 2type            fixedValue;
value           nonuniform List<scalar> 
100
(
0.037870495
0.037870503
0.037870537
0.037870563
0.037870573
0.037870586
0.0378706
0.0378706
0.037870587
0.037870575
0.037870503
0.037870519
0.037870549
0.03787057
0.037870581
0.037870594
0.03787061
0.037870611
0.037870593
0.037870581
0.037870537
0.037870549
0.037870574
0.037870588
0.037870592
0.037870607
0.037870627
0.037870626
0.037870604
0.03787059
0.037870563
0.03787057
0.037870588
0.037870593
0.03787059
0.037870604
0.037870625
0.037870623
0.037870601
0.037870585
0.037870573
0.037870581
0.037870592
0.03787059
0.037870582
0.037870589
0.037870605
0.037870604
0.037870584
0.037870569
0.037870586
0.037870594
0.037870607
0.037870604
0.037870589
0.037870586
0.037870596
0.037870593
0.037870572
0.037870557
0.0378706
0.03787061
0.037870627
0.037870625
0.037870605
0.037870596
0.0378706
0.037870591
0.037870565
0.03787055
0.0378706
0.037870611
0.037870626
0.037870623
0.037870604
0.037870593
0.037870591
0.037870576
0.037870544
0.037870526
0.037870587
0.037870593
0.037870604
0.037870601
0.037870584
0.037870572
0.037870565
0.037870544
0.037870512
0.037870493
0.037870575
0.037870581
0.03787059
0.037870585
0.037870569
0.037870557
0.03787055
0.037870526
0.037870493
0.037870481
)
;

test1: 2, 0type            fixedValue;
value           nonuniform List<scalar> 
100
(
0.046592436
0.047064591
0.048427031
0.049621737
0.050218984
0.051015226
0.051942847
0.052281268
0.051941726
0.051552381
0.047064591
0.047748075
0.049051101
0.050076977
0.050712348
0.051530851
0.052384349
0.052579132
0.052057592
0.051695543
0.048427031
0.049051101
0.050236464
0.050992511
0.05141381
0.052141608
0.052955686
0.053057299
0.052395916
0.051955761
0.049621737
0.050076977
0.050992511
0.051451963
0.051570675
0.052129654
0.052904816
0.052896768
0.052274215
0.051923223
0.050218984
0.050712347
0.051413809
0.051570675
0.051379872
0.051629247
0.052169164
0.052233611
0.051800287
0.051541542
0.051015225
0.051530851
0.052141608
0.052129654
0.051629247
0.051481847
0.051787762
0.051869887
0.051469432
0.051164349
0.051942847
0.052384348
0.052955686
0.052904816
0.052169164
0.051787762
0.051964027
0.051799947
0.051163219
0.050852003
0.052281268
0.052579132
0.053057299
0.052896768
0.052233611
0.051869887
0.051799947
0.051319086
0.050457665
0.05003176
0.051941726
0.052057592
0.052395916
0.052274215
0.051800287
0.051469432
0.051163219
0.050457665
0.049496475
0.048981914
0.051552381
0.051695543
0.05195576
0.051923222
0.051541542
0.051164349
0.050852003
0.05003176
0.048981914
0.048679378
)
;

test1: 2, 1type            fixedValue;
value           nonuniform List<scalar> 
100
(
0.046592436
0.047064591
0.048427031
0.049621737
0.050218984
0.051015226
0.051942847
0.052281268
0.051941726
0.051552381
0.047064591
0.047748075
0.049051101
0.050076977
0.050712348
0.051530851
0.052384349
0.052579132
0.052057592
0.051695543
0.048427031
0.049051101
0.050236464
0.050992511
0.05141381
0.052141608
0.052955686
0.053057299
0.052395916
0.051955761
0.049621737
0.050076977
0.050992511
0.051451963
0.051570675
0.052129654
0.052904816
0.052896768
0.052274215
0.051923223
0.050218984
0.050712347
0.051413809
0.051570675
0.051379872
0.051629247
0.052169164
0.052233611
0.051800287
0.051541542
0.051015225
0.051530851
0.052141608
0.052129654
0.051629247
0.051481847
0.051787762
0.051869887
0.051469432
0.051164349
0.051942847
0.052384348
0.052955686
0.052904816
0.052169164
0.051787762
0.051964027
0.051799947
0.051163219
0.050852003
0.052281268
0.052579132
0.053057299
0.052896768
0.052233611
0.051869887
0.051799947
0.051319086
0.050457665
0.05003176
0.051941726
0.052057592
0.052395916
0.052274215
0.051800287
0.051469432
0.051163219
0.050457665
0.049496475
0.048981914
0.051552381
0.051695543
0.05195576
0.051923222
0.051541542
0.051164349
0.050852003
0.05003176
0.048981914
0.048679378
)
;

test1: 2, 2type            fixedValue;
value           nonuniform List<scalar> 
100
(
0.046592436
0.047064591
0.048427031
0.049621737
0.050218984
0.051015226
0.051942847
0.052281268
0.051941726
0.051552381
0.047064591
0.047748075
0.049051101
0.050076977
0.050712348
0.051530851
0.052384349
0.052579132
0.052057592
0.051695543
0.048427031
0.049051101
0.050236464
0.050992511
0.05141381
0.052141608
0.052955686
0.053057299
0.052395916
0.051955761
0.049621737
0.050076977
0.050992511
0.051451963
0.051570675
0.052129654
0.052904816
0.052896768
0.052274215
0.051923223
0.050218984
0.050712347
0.051413809
0.051570675
0.051379872
0.051629247
0.052169164
0.052233611
0.051800287
0.051541542
0.051015225
0.051530851
0.052141608
0.052129654
0.051629247
0.051481847
0.051787762
0.051869887
0.051469432
0.051164349
0.051942847
0.052384348
0.052955686
0.052904816
0.052169164
0.051787762
0.051964027
0.051799947
0.051163219
0.050852003
0.052281268
0.052579132
0.053057299
0.052896768
0.052233611
0.051869887
0.051799947
0.051319086
0.050457665
0.05003176
0.051941726
0.052057592
0.052395916
0.052274215
0.051800287
0.051469432
0.051163219
0.050457665
0.049496475
0.048981914
0.051552381
0.051695543
0.05195576
0.051923222
0.051541542
0.051164349
0.050852003
0.05003176
0.048981914
0.048679378
)
;

