/*---------------------------------------------------------------------------*\
| =========                 |                                                 |
| \\      /  F ield         | OpenFOAM: The Open Source CFD Toolbox           |
|  \\    /   O peration     | Version:  v2106                                 |
|   \\  /    A nd           | Website:  www.openfoam.com                      |
|    \\/     M anipulation  |                                                 |
\*---------------------------------------------------------------------------*/
Build  : _c15bfde3cb-20210624 OPENFOAM=2106
Arch   : "LSB;label=32;scalar=64"
Exec   : icoFoamROM
Date   : Sep 02 2022
Time   : 00:41:35
Host   : Sh-Ruan-matebook
PID    : 13860
I/O    : uncollated
Case   : /home/shenhui_ruan/gitFolder/RshOpenFOAMSourceCode/icoFoamROM/svdtest
nProcs : 1
trapFpe: Floating point exception trapping enabled (FOAM_SIGFPE).
fileModificationChecking : Monitoring run-time modified files using timeStampMaster (fileModificationSkew 5, maxFileModificationPolls 20)
allowSystemOperations : Allowing user-supplied system call operations

// * * * * * * * * * * * * * * * * * * * * * * * * * * * * * * * * * * * * * //
Create time

Create mesh for time = 0


SIMPLE: no convergence criteria found. Calculations will run for 100 steps.

Reading transportProperties

Reading field U

Reading/calculating face flux field phi


Starting time loop

Time = 0.05

smoothSolver:  Solving for Ux, Initial residual = 0, Final residual = 0, No Iterations 0
smoothSolver:  Solving for Uy, Initial residual = 0, Final residual = 0, No Iterations 0
smoothSolver:  Solving for Uz, Initial residual = 1, Final residual = 1.93028e-08, No Iterations 2
ExecutionTime = 0.01 s  ClockTime = 0 s

Time = 0.1

smoothSolver:  Solving for Ux, Initial residual = 0, Final residual = 0, No Iterations 0
smoothSolver:  Solving for Uy, Initial residual = 0, Final residual = 0, No Iterations 0
smoothSolver:  Solving for Uz, Initial residual = 0.203043, Final residual = 3.94152e-09, No Iterations 2
ExecutionTime = 0.01 s  ClockTime = 0 s

Time = 0.15

smoothSolver:  Solving for Ux, Initial residual = 0, Final residual = 0, No Iterations 0
smoothSolver:  Solving for Uy, Initial residual = 0, Final residual = 0, No Iterations 0
smoothSolver:  Solving for Uz, Initial residual = 0.112556, Final residual = 2.19729e-09, No Iterations 2
ExecutionTime = 0.02 s  ClockTime = 0 s

Time = 0.2

smoothSolver:  Solving for Ux, Initial residual = 0, Final residual = 0, No Iterations 0
smoothSolver:  Solving for Uy, Initial residual = 0, Final residual = 0, No Iterations 0
smoothSolver:  Solving for Uz, Initial residual = 0.077652, Final residual = 9.79063e-06, No Iterations 1
ExecutionTime = 0.02 s  ClockTime = 0 s

Time = 0.25

smoothSolver:  Solving for Ux, Initial residual = 0, Final residual = 0, No Iterations 0
smoothSolver:  Solving for Uy, Initial residual = 0, Final residual = 0, No Iterations 0
smoothSolver:  Solving for Uz, Initial residual = 0.0591536, Final residual = 7.48659e-06, No Iterations 1
ExecutionTime = 0.02 s  ClockTime = 0 s

Time = 0.3

smoothSolver:  Solving for Ux, Initial residual = 0, Final residual = 0, No Iterations 0
smoothSolver:  Solving for Uy, Initial residual = 0, Final residual = 0, No Iterations 0
smoothSolver:  Solving for Uz, Initial residual = 0.0476959, Final residual = 6.05924e-06, No Iterations 1
ExecutionTime = 0.02 s  ClockTime = 0 s

Time = 0.35

smoothSolver:  Solving for Ux, Initial residual = 0, Final residual = 0, No Iterations 0
smoothSolver:  Solving for Uy, Initial residual = 0, Final residual = 0, No Iterations 0
smoothSolver:  Solving for Uz, Initial residual = 0.0399029, Final residual = 5.08822e-06, No Iterations 1
ExecutionTime = 0.02 s  ClockTime = 0 s

Time = 0.4

smoothSolver:  Solving for Ux, Initial residual = 0, Final residual = 0, No Iterations 0
smoothSolver:  Solving for Uy, Initial residual = 0, Final residual = 0, No Iterations 0
smoothSolver:  Solving for Uz, Initial residual = 0.0342595, Final residual = 4.38486e-06, No Iterations 1
ExecutionTime = 0.02 s  ClockTime = 0 s

Time = 0.45

smoothSolver:  Solving for Ux, Initial residual = 0, Final residual = 0, No Iterations 0
smoothSolver:  Solving for Uy, Initial residual = 0, Final residual = 0, No Iterations 0
smoothSolver:  Solving for Uz, Initial residual = 0.0299846, Final residual = 3.85191e-06, No Iterations 1
ExecutionTime = 0.02 s  ClockTime = 0 s

Time = 0.5

smoothSolver:  Solving for Ux, Initial residual = 0, Final residual = 0, No Iterations 0
smoothSolver:  Solving for Uy, Initial residual = 0, Final residual = 0, No Iterations 0
smoothSolver:  Solving for Uz, Initial residual = 0.0266347, Final residual = 3.43413e-06, No Iterations 1
ExecutionTime = 0.02 s  ClockTime = 0 s

Time = 0.55

smoothSolver:  Solving for Ux, Initial residual = 0, Final residual = 0, No Iterations 0
smoothSolver:  Solving for Uy, Initial residual = 0, Final residual = 0, No Iterations 0
smoothSolver:  Solving for Uz, Initial residual = 0.0239252, Final residual = 3.09605e-06, No Iterations 1
ExecutionTime = 0.02 s  ClockTime = 0 s

Time = 0.6

smoothSolver:  Solving for Ux, Initial residual = 0, Final residual = 0, No Iterations 0
smoothSolver:  Solving for Uy, Initial residual = 0, Final residual = 0, No Iterations 0
smoothSolver:  Solving for Uz, Initial residual = 0.0216881, Final residual = 2.81673e-06, No Iterations 1
ExecutionTime = 0.02 s  ClockTime = 0 s

Time = 0.65

smoothSolver:  Solving for Ux, Initial residual = 0, Final residual = 0, No Iterations 0
smoothSolver:  Solving for Uy, Initial residual = 0, Final residual = 0, No Iterations 0
smoothSolver:  Solving for Uz, Initial residual = 0.0198031, Final residual = 2.58118e-06, No Iterations 1
ExecutionTime = 0.02 s  ClockTime = 0 s

Time = 0.7

smoothSolver:  Solving for Ux, Initial residual = 0, Final residual = 0, No Iterations 0
smoothSolver:  Solving for Uy, Initial residual = 0, Final residual = 0, No Iterations 0
smoothSolver:  Solving for Uz, Initial residual = 0.0181956, Final residual = 2.38015e-06, No Iterations 1
ExecutionTime = 0.02 s  ClockTime = 0 s

Time = 0.75

smoothSolver:  Solving for Ux, Initial residual = 0, Final residual = 0, No Iterations 0
smoothSolver:  Solving for Uy, Initial residual = 0, Final residual = 0, No Iterations 0
smoothSolver:  Solving for Uz, Initial residual = 0.0168135, Final residual = 2.20717e-06, No Iterations 1
ExecutionTime = 0.02 s  ClockTime = 0 s

Time = 0.8

smoothSolver:  Solving for Ux, Initial residual = 0, Final residual = 0, No Iterations 0
smoothSolver:  Solving for Uy, Initial residual = 0, Final residual = 0, No Iterations 0
smoothSolver:  Solving for Uz, Initial residual = 0.0156135, Final residual = 2.05688e-06, No Iterations 1
ExecutionTime = 0.02 s  ClockTime = 0 s

Time = 0.85

smoothSolver:  Solving for Ux, Initial residual = 0, Final residual = 0, No Iterations 0
smoothSolver:  Solving for Uy, Initial residual = 0, Final residual = 0, No Iterations 0
smoothSolver:  Solving for Uz, Initial residual = 0.0145623, Final residual = 1.92513e-06, No Iterations 1
ExecutionTime = 0.02 s  ClockTime = 0 s

Time = 0.9

smoothSolver:  Solving for Ux, Initial residual = 0, Final residual = 0, No Iterations 0
smoothSolver:  Solving for Uy, Initial residual = 0, Final residual = 0, No Iterations 0
smoothSolver:  Solving for Uz, Initial residual = 0.013634, Final residual = 1.80869e-06, No Iterations 1
ExecutionTime = 0.02 s  ClockTime = 0 s

Time = 0.95

smoothSolver:  Solving for Ux, Initial residual = 0, Final residual = 0, No Iterations 0
smoothSolver:  Solving for Uy, Initial residual = 0, Final residual = 0, No Iterations 0
smoothSolver:  Solving for Uz, Initial residual = 0.0128084, Final residual = 1.70505e-06, No Iterations 1
ExecutionTime = 0.03 s  ClockTime = 0 s

Time = 1

smoothSolver:  Solving for Ux, Initial residual = 0, Final residual = 0, No Iterations 0
smoothSolver:  Solving for Uy, Initial residual = 0, Final residual = 0, No Iterations 0
smoothSolver:  Solving for Uz, Initial residual = 0.0120695, Final residual = 1.61222e-06, No Iterations 1
ExecutionTime = 0.03 s  ClockTime = 0 s

Time = 1.05

smoothSolver:  Solving for Ux, Initial residual = 0, Final residual = 0, No Iterations 0
smoothSolver:  Solving for Uy, Initial residual = 0, Final residual = 0, No Iterations 0
smoothSolver:  Solving for Uz, Initial residual = 0.0114045, Final residual = 1.52859e-06, No Iterations 1
ExecutionTime = 0.03 s  ClockTime = 0 s

Time = 1.1

smoothSolver:  Solving for Ux, Initial residual = 0, Final residual = 0, No Iterations 0
smoothSolver:  Solving for Uy, Initial residual = 0, Final residual = 0, No Iterations 0
smoothSolver:  Solving for Uz, Initial residual = 0.0108029, Final residual = 1.45287e-06, No Iterations 1
ExecutionTime = 0.03 s  ClockTime = 0 s

Time = 1.15

smoothSolver:  Solving for Ux, Initial residual = 0, Final residual = 0, No Iterations 0
smoothSolver:  Solving for Uy, Initial residual = 0, Final residual = 0, No Iterations 0
smoothSolver:  Solving for Uz, Initial residual = 0.0102561, Final residual = 1.38399e-06, No Iterations 1
ExecutionTime = 0.03 s  ClockTime = 0 s

Time = 1.2

smoothSolver:  Solving for Ux, Initial residual = 0, Final residual = 0, No Iterations 0
smoothSolver:  Solving for Uy, Initial residual = 0, Final residual = 0, No Iterations 0
smoothSolver:  Solving for Uz, Initial residual = 0.00975717, Final residual = 1.32106e-06, No Iterations 1
ExecutionTime = 0.03 s  ClockTime = 0 s

Time = 1.25

smoothSolver:  Solving for Ux, Initial residual = 0, Final residual = 0, No Iterations 0
smoothSolver:  Solving for Uy, Initial residual = 0, Final residual = 0, No Iterations 0
smoothSolver:  Solving for Uz, Initial residual = 0.00930006, Final residual = 1.26336e-06, No Iterations 1
ExecutionTime = 0.03 s  ClockTime = 0 s

Time = 1.3

smoothSolver:  Solving for Ux, Initial residual = 0, Final residual = 0, No Iterations 0
smoothSolver:  Solving for Uy, Initial residual = 0, Final residual = 0, No Iterations 0
smoothSolver:  Solving for Uz, Initial residual = 0.00887982, Final residual = 1.21026e-06, No Iterations 1
ExecutionTime = 0.03 s  ClockTime = 0 s

Time = 1.35

smoothSolver:  Solving for Ux, Initial residual = 0, Final residual = 0, No Iterations 0
smoothSolver:  Solving for Uy, Initial residual = 0, Final residual = 0, No Iterations 0
smoothSolver:  Solving for Uz, Initial residual = 0.00849225, Final residual = 1.16123e-06, No Iterations 1
ExecutionTime = 0.03 s  ClockTime = 0 s

Time = 1.4

smoothSolver:  Solving for Ux, Initial residual = 0, Final residual = 0, No Iterations 0
smoothSolver:  Solving for Uy, Initial residual = 0, Final residual = 0, No Iterations 0
smoothSolver:  Solving for Uz, Initial residual = 0.00813372, Final residual = 1.11583e-06, No Iterations 1
ExecutionTime = 0.03 s  ClockTime = 0 s

Time = 1.45

smoothSolver:  Solving for Ux, Initial residual = 0, Final residual = 0, No Iterations 0
smoothSolver:  Solving for Uy, Initial residual = 0, Final residual = 0, No Iterations 0
smoothSolver:  Solving for Uz, Initial residual = 0.00780116, Final residual = 1.07367e-06, No Iterations 1
ExecutionTime = 0.03 s  ClockTime = 0 s

Time = 1.5

smoothSolver:  Solving for Ux, Initial residual = 0, Final residual = 0, No Iterations 0
smoothSolver:  Solving for Uy, Initial residual = 0, Final residual = 0, No Iterations 0
smoothSolver:  Solving for Uz, Initial residual = 0.00749189, Final residual = 1.03442e-06, No Iterations 1
ExecutionTime = 0.03 s  ClockTime = 0 s

Time = 1.55

smoothSolver:  Solving for Ux, Initial residual = 0, Final residual = 0, No Iterations 0
smoothSolver:  Solving for Uy, Initial residual = 0, Final residual = 0, No Iterations 0
smoothSolver:  Solving for Uz, Initial residual = 0.0072036, Final residual = 9.97787e-07, No Iterations 1
ExecutionTime = 0.03 s  ClockTime = 0 s

Time = 1.6

smoothSolver:  Solving for Ux, Initial residual = 0, Final residual = 0, No Iterations 0
smoothSolver:  Solving for Uy, Initial residual = 0, Final residual = 0, No Iterations 0
smoothSolver:  Solving for Uz, Initial residual = 0.00693426, Final residual = 9.63525e-07, No Iterations 1
ExecutionTime = 0.03 s  ClockTime = 0 s

Time = 1.65

smoothSolver:  Solving for Ux, Initial residual = 0, Final residual = 0, No Iterations 0
smoothSolver:  Solving for Uy, Initial residual = 0, Final residual = 0, No Iterations 0
smoothSolver:  Solving for Uz, Initial residual = 0.00668211, Final residual = 9.3141e-07, No Iterations 1
ExecutionTime = 0.03 s  ClockTime = 0 s

Time = 1.7

smoothSolver:  Solving for Ux, Initial residual = 0, Final residual = 0, No Iterations 0
smoothSolver:  Solving for Uy, Initial residual = 0, Final residual = 0, No Iterations 0
smoothSolver:  Solving for Uz, Initial residual = 0.00644559, Final residual = 9.01249e-07, No Iterations 1
ExecutionTime = 0.03 s  ClockTime = 0 s

Time = 1.75

smoothSolver:  Solving for Ux, Initial residual = 0, Final residual = 0, No Iterations 0
smoothSolver:  Solving for Uy, Initial residual = 0, Final residual = 0, No Iterations 0
smoothSolver:  Solving for Uz, Initial residual = 0.00622332, Final residual = 8.72872e-07, No Iterations 1
ExecutionTime = 0.03 s  ClockTime = 0 s

Time = 1.8

smoothSolver:  Solving for Ux, Initial residual = 0, Final residual = 0, No Iterations 0
smoothSolver:  Solving for Uy, Initial residual = 0, Final residual = 0, No Iterations 0
smoothSolver:  Solving for Uz, Initial residual = 0.00601409, Final residual = 8.46125e-07, No Iterations 1
ExecutionTime = 0.04 s  ClockTime = 0 s

Time = 1.85

smoothSolver:  Solving for Ux, Initial residual = 0, Final residual = 0, No Iterations 0
smoothSolver:  Solving for Uy, Initial residual = 0, Final residual = 0, No Iterations 0
smoothSolver:  Solving for Uz, Initial residual = 0.00581681, Final residual = 8.20873e-07, No Iterations 1
ExecutionTime = 0.04 s  ClockTime = 0 s

Time = 1.9

smoothSolver:  Solving for Ux, Initial residual = 0, Final residual = 0, No Iterations 0
smoothSolver:  Solving for Uy, Initial residual = 0, Final residual = 0, No Iterations 0
smoothSolver:  Solving for Uz, Initial residual = 0.00563051, Final residual = 7.96997e-07, No Iterations 1
ExecutionTime = 0.04 s  ClockTime = 0 s

Time = 1.95

smoothSolver:  Solving for Ux, Initial residual = 0, Final residual = 0, No Iterations 0
smoothSolver:  Solving for Uy, Initial residual = 0, Final residual = 0, No Iterations 0
smoothSolver:  Solving for Uz, Initial residual = 0.00545433, Final residual = 7.74388e-07, No Iterations 1
ExecutionTime = 0.04 s  ClockTime = 0 s

Time = 2

smoothSolver:  Solving for Ux, Initial residual = 0, Final residual = 0, No Iterations 0
smoothSolver:  Solving for Uy, Initial residual = 0, Final residual = 0, No Iterations 0
smoothSolver:  Solving for Uz, Initial residual = 0.00528749, Final residual = 7.5295e-07, No Iterations 1
ExecutionTime = 0.04 s  ClockTime = 0 s

Time = 2.05

smoothSolver:  Solving for Ux, Initial residual = 0, Final residual = 0, No Iterations 0
smoothSolver:  Solving for Uy, Initial residual = 0, Final residual = 0, No Iterations 0
smoothSolver:  Solving for Uz, Initial residual = 0.00512929, Final residual = 7.32594e-07, No Iterations 1
ExecutionTime = 0.04 s  ClockTime = 0 s

Time = 2.1

smoothSolver:  Solving for Ux, Initial residual = 0, Final residual = 0, No Iterations 0
smoothSolver:  Solving for Uy, Initial residual = 0, Final residual = 0, No Iterations 0
smoothSolver:  Solving for Uz, Initial residual = 0.00497909, Final residual = 7.13242e-07, No Iterations 1
ExecutionTime = 0.04 s  ClockTime = 0 s

Time = 2.15

smoothSolver:  Solving for Ux, Initial residual = 0, Final residual = 0, No Iterations 0
smoothSolver:  Solving for Uy, Initial residual = 0, Final residual = 0, No Iterations 0
smoothSolver:  Solving for Uz, Initial residual = 0.00483633, Final residual = 6.94822e-07, No Iterations 1
ExecutionTime = 0.04 s  ClockTime = 0 s

Time = 2.2

smoothSolver:  Solving for Ux, Initial residual = 0, Final residual = 0, No Iterations 0
smoothSolver:  Solving for Uy, Initial residual = 0, Final residual = 0, No Iterations 0
smoothSolver:  Solving for Uz, Initial residual = 0.00470048, Final residual = 6.7727e-07, No Iterations 1
ExecutionTime = 0.04 s  ClockTime = 0 s

Time = 2.25

smoothSolver:  Solving for Ux, Initial residual = 0, Final residual = 0, No Iterations 0
smoothSolver:  Solving for Uy, Initial residual = 0, Final residual = 0, No Iterations 0
smoothSolver:  Solving for Uz, Initial residual = 0.00457107, Final residual = 6.60527e-07, No Iterations 1
ExecutionTime = 0.04 s  ClockTime = 0 s

Time = 2.3

smoothSolver:  Solving for Ux, Initial residual = 0, Final residual = 0, No Iterations 0
smoothSolver:  Solving for Uy, Initial residual = 0, Final residual = 0, No Iterations 0
smoothSolver:  Solving for Uz, Initial residual = 0.00444767, Final residual = 6.44539e-07, No Iterations 1
ExecutionTime = 0.04 s  ClockTime = 0 s

Time = 2.35

smoothSolver:  Solving for Ux, Initial residual = 0, Final residual = 0, No Iterations 0
smoothSolver:  Solving for Uy, Initial residual = 0, Final residual = 0, No Iterations 0
smoothSolver:  Solving for Uz, Initial residual = 0.00432988, Final residual = 6.29257e-07, No Iterations 1
ExecutionTime = 0.04 s  ClockTime = 0 s

Time = 2.4

smoothSolver:  Solving for Ux, Initial residual = 0, Final residual = 0, No Iterations 0
smoothSolver:  Solving for Uy, Initial residual = 0, Final residual = 0, No Iterations 0
smoothSolver:  Solving for Uz, Initial residual = 0.00421735, Final residual = 6.14635e-07, No Iterations 1
ExecutionTime = 0.04 s  ClockTime = 0 s

Time = 2.45

smoothSolver:  Solving for Ux, Initial residual = 0, Final residual = 0, No Iterations 0
smoothSolver:  Solving for Uy, Initial residual = 0, Final residual = 0, No Iterations 0
smoothSolver:  Solving for Uz, Initial residual = 0.00410974, Final residual = 6.00633e-07, No Iterations 1
ExecutionTime = 0.04 s  ClockTime = 0 s

Time = 2.5

smoothSolver:  Solving for Ux, Initial residual = 0, Final residual = 0, No Iterations 0
smoothSolver:  Solving for Uy, Initial residual = 0, Final residual = 0, No Iterations 0
smoothSolver:  Solving for Uz, Initial residual = 0.00400676, Final residual = 5.87213e-07, No Iterations 1
ExecutionTime = 0.04 s  ClockTime = 0 s

Time = 2.55

smoothSolver:  Solving for Ux, Initial residual = 0, Final residual = 0, No Iterations 0
smoothSolver:  Solving for Uy, Initial residual = 0, Final residual = 0, No Iterations 0
smoothSolver:  Solving for Uz, Initial residual = 0.00390811, Final residual = 5.74341e-07, No Iterations 1
ExecutionTime = 0.04 s  ClockTime = 0 s

Time = 2.6

smoothSolver:  Solving for Ux, Initial residual = 0, Final residual = 0, No Iterations 0
smoothSolver:  Solving for Uy, Initial residual = 0, Final residual = 0, No Iterations 0
smoothSolver:  Solving for Uz, Initial residual = 0.00381356, Final residual = 5.61982e-07, No Iterations 1
ExecutionTime = 0.04 s  ClockTime = 0 s

Time = 2.65

smoothSolver:  Solving for Ux, Initial residual = 0, Final residual = 0, No Iterations 0
smoothSolver:  Solving for Uy, Initial residual = 0, Final residual = 0, No Iterations 0
smoothSolver:  Solving for Uz, Initial residual = 0.00372284, Final residual = 5.50109e-07, No Iterations 1
ExecutionTime = 0.05 s  ClockTime = 0 s

Time = 2.7

smoothSolver:  Solving for Ux, Initial residual = 0, Final residual = 0, No Iterations 0
smoothSolver:  Solving for Uy, Initial residual = 0, Final residual = 0, No Iterations 0
smoothSolver:  Solving for Uz, Initial residual = 0.00363576, Final residual = 5.38694e-07, No Iterations 1
ExecutionTime = 0.05 s  ClockTime = 0 s

Time = 2.75

smoothSolver:  Solving for Ux, Initial residual = 0, Final residual = 0, No Iterations 0
smoothSolver:  Solving for Uy, Initial residual = 0, Final residual = 0, No Iterations 0
smoothSolver:  Solving for Uz, Initial residual = 0.0035521, Final residual = 5.27711e-07, No Iterations 1
ExecutionTime = 0.05 s  ClockTime = 0 s

Time = 2.8

smoothSolver:  Solving for Ux, Initial residual = 0, Final residual = 0, No Iterations 0
smoothSolver:  Solving for Uy, Initial residual = 0, Final residual = 0, No Iterations 0
smoothSolver:  Solving for Uz, Initial residual = 0.00347168, Final residual = 5.17137e-07, No Iterations 1
ExecutionTime = 0.05 s  ClockTime = 0 s

Time = 2.85

smoothSolver:  Solving for Ux, Initial residual = 0, Final residual = 0, No Iterations 0
smoothSolver:  Solving for Uy, Initial residual = 0, Final residual = 0, No Iterations 0
smoothSolver:  Solving for Uz, Initial residual = 0.00339431, Final residual = 5.06949e-07, No Iterations 1
ExecutionTime = 0.05 s  ClockTime = 0 s

Time = 2.9

smoothSolver:  Solving for Ux, Initial residual = 0, Final residual = 0, No Iterations 0
smoothSolver:  Solving for Uy, Initial residual = 0, Final residual = 0, No Iterations 0
smoothSolver:  Solving for Uz, Initial residual = 0.00331984, Final residual = 4.97128e-07, No Iterations 1
ExecutionTime = 0.05 s  ClockTime = 0 s

Time = 2.95

smoothSolver:  Solving for Ux, Initial residual = 0, Final residual = 0, No Iterations 0
smoothSolver:  Solving for Uy, Initial residual = 0, Final residual = 0, No Iterations 0
smoothSolver:  Solving for Uz, Initial residual = 0.00324812, Final residual = 4.87655e-07, No Iterations 1
ExecutionTime = 0.05 s  ClockTime = 0 s

Time = 3

smoothSolver:  Solving for Ux, Initial residual = 0, Final residual = 0, No Iterations 0
smoothSolver:  Solving for Uy, Initial residual = 0, Final residual = 0, No Iterations 0
smoothSolver:  Solving for Uz, Initial residual = 0.003179, Final residual = 4.78511e-07, No Iterations 1
ExecutionTime = 0.05 s  ClockTime = 0 s

Time = 3.05

smoothSolver:  Solving for Ux, Initial residual = 0, Final residual = 0, No Iterations 0
smoothSolver:  Solving for Uy, Initial residual = 0, Final residual = 0, No Iterations 0
smoothSolver:  Solving for Uz, Initial residual = 0.00311235, Final residual = 4.6968e-07, No Iterations 1
ExecutionTime = 0.05 s  ClockTime = 0 s

Time = 3.1

smoothSolver:  Solving for Ux, Initial residual = 0, Final residual = 0, No Iterations 0
smoothSolver:  Solving for Uy, Initial residual = 0, Final residual = 0, No Iterations 0
smoothSolver:  Solving for Uz, Initial residual = 0.00304805, Final residual = 4.61147e-07, No Iterations 1
ExecutionTime = 0.05 s  ClockTime = 0 s

Time = 3.15

smoothSolver:  Solving for Ux, Initial residual = 0, Final residual = 0, No Iterations 0
smoothSolver:  Solving for Uy, Initial residual = 0, Final residual = 0, No Iterations 0
smoothSolver:  Solving for Uz, Initial residual = 0.00298598, Final residual = 4.52898e-07, No Iterations 1
ExecutionTime = 0.05 s  ClockTime = 0 s

Time = 3.2

smoothSolver:  Solving for Ux, Initial residual = 0, Final residual = 0, No Iterations 0
smoothSolver:  Solving for Uy, Initial residual = 0, Final residual = 0, No Iterations 0
smoothSolver:  Solving for Uz, Initial residual = 0.00292604, Final residual = 4.44918e-07, No Iterations 1
ExecutionTime = 0.05 s  ClockTime = 0 s

Time = 3.25

smoothSolver:  Solving for Ux, Initial residual = 0, Final residual = 0, No Iterations 0
smoothSolver:  Solving for Uy, Initial residual = 0, Final residual = 0, No Iterations 0
smoothSolver:  Solving for Uz, Initial residual = 0.00286812, Final residual = 4.37195e-07, No Iterations 1
ExecutionTime = 0.05 s  ClockTime = 0 s

Time = 3.3

smoothSolver:  Solving for Ux, Initial residual = 0, Final residual = 0, No Iterations 0
smoothSolver:  Solving for Uy, Initial residual = 0, Final residual = 0, No Iterations 0
smoothSolver:  Solving for Uz, Initial residual = 0.00281213, Final residual = 4.29718e-07, No Iterations 1
ExecutionTime = 0.05 s  ClockTime = 0 s

Time = 3.35

smoothSolver:  Solving for Ux, Initial residual = 0, Final residual = 0, No Iterations 0
smoothSolver:  Solving for Uy, Initial residual = 0, Final residual = 0, No Iterations 0
smoothSolver:  Solving for Uz, Initial residual = 0.00275797, Final residual = 4.22474e-07, No Iterations 1
ExecutionTime = 0.05 s  ClockTime = 0 s

Time = 3.4

smoothSolver:  Solving for Ux, Initial residual = 0, Final residual = 0, No Iterations 0
smoothSolver:  Solving for Uy, Initial residual = 0, Final residual = 0, No Iterations 0
smoothSolver:  Solving for Uz, Initial residual = 0.00270557, Final residual = 4.15455e-07, No Iterations 1
ExecutionTime = 0.05 s  ClockTime = 0 s

Time = 3.45

smoothSolver:  Solving for Ux, Initial residual = 0, Final residual = 0, No Iterations 0
smoothSolver:  Solving for Uy, Initial residual = 0, Final residual = 0, No Iterations 0
smoothSolver:  Solving for Uz, Initial residual = 0.00265485, Final residual = 4.08648e-07, No Iterations 1
ExecutionTime = 0.06 s  ClockTime = 0 s

Time = 3.5

smoothSolver:  Solving for Ux, Initial residual = 0, Final residual = 0, No Iterations 0
smoothSolver:  Solving for Uy, Initial residual = 0, Final residual = 0, No Iterations 0
smoothSolver:  Solving for Uz, Initial residual = 0.00260573, Final residual = 4.02046e-07, No Iterations 1
ExecutionTime = 0.06 s  ClockTime = 0 s

Time = 3.55

smoothSolver:  Solving for Ux, Initial residual = 0, Final residual = 0, No Iterations 0
smoothSolver:  Solving for Uy, Initial residual = 0, Final residual = 0, No Iterations 0
smoothSolver:  Solving for Uz, Initial residual = 0.00255814, Final residual = 3.9564e-07, No Iterations 1
ExecutionTime = 0.06 s  ClockTime = 0 s

Time = 3.6

smoothSolver:  Solving for Ux, Initial residual = 0, Final residual = 0, No Iterations 0
smoothSolver:  Solving for Uy, Initial residual = 0, Final residual = 0, No Iterations 0
smoothSolver:  Solving for Uz, Initial residual = 0.00251201, Final residual = 3.8942e-07, No Iterations 1
ExecutionTime = 0.06 s  ClockTime = 0 s

Time = 3.65

smoothSolver:  Solving for Ux, Initial residual = 0, Final residual = 0, No Iterations 0
smoothSolver:  Solving for Uy, Initial residual = 0, Final residual = 0, No Iterations 0
smoothSolver:  Solving for Uz, Initial residual = 0.00246728, Final residual = 3.8338e-07, No Iterations 1
ExecutionTime = 0.06 s  ClockTime = 0 s

Time = 3.7

smoothSolver:  Solving for Ux, Initial residual = 0, Final residual = 0, No Iterations 0
smoothSolver:  Solving for Uy, Initial residual = 0, Final residual = 0, No Iterations 0
smoothSolver:  Solving for Uz, Initial residual = 0.0024239, Final residual = 3.77512e-07, No Iterations 1
ExecutionTime = 0.06 s  ClockTime = 0 s

Time = 3.75

smoothSolver:  Solving for Ux, Initial residual = 0, Final residual = 0, No Iterations 0
smoothSolver:  Solving for Uy, Initial residual = 0, Final residual = 0, No Iterations 0
smoothSolver:  Solving for Uz, Initial residual = 0.00238181, Final residual = 3.71808e-07, No Iterations 1
ExecutionTime = 0.06 s  ClockTime = 0 s

Time = 3.8

smoothSolver:  Solving for Ux, Initial residual = 0, Final residual = 0, No Iterations 0
smoothSolver:  Solving for Uy, Initial residual = 0, Final residual = 0, No Iterations 0
smoothSolver:  Solving for Uz, Initial residual = 0.00234095, Final residual = 3.66263e-07, No Iterations 1
ExecutionTime = 0.06 s  ClockTime = 0 s

Time = 3.85

smoothSolver:  Solving for Ux, Initial residual = 0, Final residual = 0, No Iterations 0
smoothSolver:  Solving for Uy, Initial residual = 0, Final residual = 0, No Iterations 0
smoothSolver:  Solving for Uz, Initial residual = 0.00230127, Final residual = 3.60869e-07, No Iterations 1
ExecutionTime = 0.06 s  ClockTime = 0 s

Time = 3.9

smoothSolver:  Solving for Ux, Initial residual = 0, Final residual = 0, No Iterations 0
smoothSolver:  Solving for Uy, Initial residual = 0, Final residual = 0, No Iterations 0
smoothSolver:  Solving for Uz, Initial residual = 0.00226273, Final residual = 3.55622e-07, No Iterations 1
ExecutionTime = 0.06 s  ClockTime = 0 s

Time = 3.95

smoothSolver:  Solving for Ux, Initial residual = 0, Final residual = 0, No Iterations 0
smoothSolver:  Solving for Uy, Initial residual = 0, Final residual = 0, No Iterations 0
smoothSolver:  Solving for Uz, Initial residual = 0.00222528, Final residual = 3.50515e-07, No Iterations 1
ExecutionTime = 0.06 s  ClockTime = 0 s

Time = 4

smoothSolver:  Solving for Ux, Initial residual = 0, Final residual = 0, No Iterations 0
smoothSolver:  Solving for Uy, Initial residual = 0, Final residual = 0, No Iterations 0
smoothSolver:  Solving for Uz, Initial residual = 0.00218888, Final residual = 3.45543e-07, No Iterations 1
ExecutionTime = 0.06 s  ClockTime = 0 s

Time = 4.05

smoothSolver:  Solving for Ux, Initial residual = 0, Final residual = 0, No Iterations 0
smoothSolver:  Solving for Uy, Initial residual = 0, Final residual = 0, No Iterations 0
smoothSolver:  Solving for Uz, Initial residual = 0.00215349, Final residual = 3.407e-07, No Iterations 1
ExecutionTime = 0.06 s  ClockTime = 0 s

Time = 4.1

smoothSolver:  Solving for Ux, Initial residual = 0, Final residual = 0, No Iterations 0
smoothSolver:  Solving for Uy, Initial residual = 0, Final residual = 0, No Iterations 0
smoothSolver:  Solving for Uz, Initial residual = 0.00211907, Final residual = 3.35983e-07, No Iterations 1
ExecutionTime = 0.06 s  ClockTime = 0 s

Time = 4.15

smoothSolver:  Solving for Ux, Initial residual = 0, Final residual = 0, No Iterations 0
smoothSolver:  Solving for Uy, Initial residual = 0, Final residual = 0, No Iterations 0
smoothSolver:  Solving for Uz, Initial residual = 0.00208558, Final residual = 3.31386e-07, No Iterations 1
ExecutionTime = 0.06 s  ClockTime = 0 s

Time = 4.2

smoothSolver:  Solving for Ux, Initial residual = 0, Final residual = 0, No Iterations 0
smoothSolver:  Solving for Uy, Initial residual = 0, Final residual = 0, No Iterations 0
smoothSolver:  Solving for Uz, Initial residual = 0.00205299, Final residual = 3.26904e-07, No Iterations 1
ExecutionTime = 0.06 s  ClockTime = 0 s

Time = 4.25

smoothSolver:  Solving for Ux, Initial residual = 0, Final residual = 0, No Iterations 0
smoothSolver:  Solving for Uy, Initial residual = 0, Final residual = 0, No Iterations 0
smoothSolver:  Solving for Uz, Initial residual = 0.00202126, Final residual = 3.22535e-07, No Iterations 1
ExecutionTime = 0.06 s  ClockTime = 0 s

Time = 4.3

smoothSolver:  Solving for Ux, Initial residual = 0, Final residual = 0, No Iterations 0
smoothSolver:  Solving for Uy, Initial residual = 0, Final residual = 0, No Iterations 0
smoothSolver:  Solving for Uz, Initial residual = 0.00199037, Final residual = 3.18273e-07, No Iterations 1
ExecutionTime = 0.06 s  ClockTime = 0 s

Time = 4.35

smoothSolver:  Solving for Ux, Initial residual = 0, Final residual = 0, No Iterations 0
smoothSolver:  Solving for Uy, Initial residual = 0, Final residual = 0, No Iterations 0
smoothSolver:  Solving for Uz, Initial residual = 0.00196028, Final residual = 3.14115e-07, No Iterations 1
ExecutionTime = 0.07 s  ClockTime = 0 s

Time = 4.4

smoothSolver:  Solving for Ux, Initial residual = 0, Final residual = 0, No Iterations 0
smoothSolver:  Solving for Uy, Initial residual = 0, Final residual = 0, No Iterations 0
smoothSolver:  Solving for Uz, Initial residual = 0.00193087, Final residual = 3.10042e-07, No Iterations 1
ExecutionTime = 0.07 s  ClockTime = 0 s

Time = 4.45

smoothSolver:  Solving for Ux, Initial residual = 0, Final residual = 0, No Iterations 0
smoothSolver:  Solving for Uy, Initial residual = 0, Final residual = 0, No Iterations 0
smoothSolver:  Solving for Uz, Initial residual = 0.00190209, Final residual = 3.06048e-07, No Iterations 1
ExecutionTime = 0.07 s  ClockTime = 0 s

Time = 4.5

smoothSolver:  Solving for Ux, Initial residual = 0, Final residual = 0, No Iterations 0
smoothSolver:  Solving for Uy, Initial residual = 0, Final residual = 0, No Iterations 0
smoothSolver:  Solving for Uz, Initial residual = 0.0018739, Final residual = 3.02125e-07, No Iterations 1
ExecutionTime = 0.07 s  ClockTime = 0 s

Time = 4.55

smoothSolver:  Solving for Ux, Initial residual = 0, Final residual = 0, No Iterations 0
smoothSolver:  Solving for Uy, Initial residual = 0, Final residual = 0, No Iterations 0
smoothSolver:  Solving for Uz, Initial residual = 0.0018464, Final residual = 2.98291e-07, No Iterations 1
ExecutionTime = 0.07 s  ClockTime = 0 s

Time = 4.6

smoothSolver:  Solving for Ux, Initial residual = 0, Final residual = 0, No Iterations 0
smoothSolver:  Solving for Uy, Initial residual = 0, Final residual = 0, No Iterations 0
smoothSolver:  Solving for Uz, Initial residual = 0.00181949, Final residual = 2.94532e-07, No Iterations 1
ExecutionTime = 0.07 s  ClockTime = 0 s

Time = 4.65

smoothSolver:  Solving for Ux, Initial residual = 0, Final residual = 0, No Iterations 0
smoothSolver:  Solving for Uy, Initial residual = 0, Final residual = 0, No Iterations 0
smoothSolver:  Solving for Uz, Initial residual = 0.00179317, Final residual = 2.90847e-07, No Iterations 1
ExecutionTime = 0.07 s  ClockTime = 0 s

Time = 4.7

smoothSolver:  Solving for Ux, Initial residual = 0, Final residual = 0, No Iterations 0
smoothSolver:  Solving for Uy, Initial residual = 0, Final residual = 0, No Iterations 0
smoothSolver:  Solving for Uz, Initial residual = 0.00176745, Final residual = 2.8724e-07, No Iterations 1
ExecutionTime = 0.07 s  ClockTime = 0 s

Time = 4.75

smoothSolver:  Solving for Ux, Initial residual = 0, Final residual = 0, No Iterations 0
smoothSolver:  Solving for Uy, Initial residual = 0, Final residual = 0, No Iterations 0
smoothSolver:  Solving for Uz, Initial residual = 0.00174235, Final residual = 2.83713e-07, No Iterations 1
ExecutionTime = 0.07 s  ClockTime = 0 s

Time = 4.8

smoothSolver:  Solving for Ux, Initial residual = 0, Final residual = 0, No Iterations 0
smoothSolver:  Solving for Uy, Initial residual = 0, Final residual = 0, No Iterations 0
smoothSolver:  Solving for Uz, Initial residual = 0.00171784, Final residual = 2.80262e-07, No Iterations 1
ExecutionTime = 0.07 s  ClockTime = 0 s

Time = 4.85

smoothSolver:  Solving for Ux, Initial residual = 0, Final residual = 0, No Iterations 0
smoothSolver:  Solving for Uy, Initial residual = 0, Final residual = 0, No Iterations 0
smoothSolver:  Solving for Uz, Initial residual = 0.00169389, Final residual = 2.76886e-07, No Iterations 1
ExecutionTime = 0.07 s  ClockTime = 0 s

Time = 4.9

smoothSolver:  Solving for Ux, Initial residual = 0, Final residual = 0, No Iterations 0
smoothSolver:  Solving for Uy, Initial residual = 0, Final residual = 0, No Iterations 0
smoothSolver:  Solving for Uz, Initial residual = 0.0016705, Final residual = 2.73582e-07, No Iterations 1
ExecutionTime = 0.07 s  ClockTime = 0 s

Time = 4.95

smoothSolver:  Solving for Ux, Initial residual = 0, Final residual = 0, No Iterations 0
smoothSolver:  Solving for Uy, Initial residual = 0, Final residual = 0, No Iterations 0
smoothSolver:  Solving for Uz, Initial residual = 0.00164766, Final residual = 2.70349e-07, No Iterations 1
ExecutionTime = 0.07 s  ClockTime = 0 s

Time = 5

smoothSolver:  Solving for Ux, Initial residual = 0, Final residual = 0, No Iterations 0
smoothSolver:  Solving for Uy, Initial residual = 0, Final residual = 0, No Iterations 0
smoothSolver:  Solving for Uz, Initial residual = 0.00162533, Final residual = 2.67185e-07, No Iterations 1
ExecutionTime = 0.07 s  ClockTime = 0 s

Time = 5.05

smoothSolver:  Solving for Ux, Initial residual = 0, Final residual = 0, No Iterations 0
smoothSolver:  Solving for Uy, Initial residual = 0, Final residual = 0, No Iterations 0
smoothSolver:  Solving for Uz, Initial residual = 0.00160352, Final residual = 2.64087e-07, No Iterations 1
ExecutionTime = 0.07 s  ClockTime = 0 s

Time = 5.1

smoothSolver:  Solving for Ux, Initial residual = 0, Final residual = 0, No Iterations 0
smoothSolver:  Solving for Uy, Initial residual = 0, Final residual = 0, No Iterations 0
smoothSolver:  Solving for Uz, Initial residual = 0.00158219, Final residual = 2.61055e-07, No Iterations 1
ExecutionTime = 0.07 s  ClockTime = 0 s

Time = 5.15

smoothSolver:  Solving for Ux, Initial residual = 0, Final residual = 0, No Iterations 0
smoothSolver:  Solving for Uy, Initial residual = 0, Final residual = 0, No Iterations 0
smoothSolver:  Solving for Uz, Initial residual = 0.00156135, Final residual = 2.58085e-07, No Iterations 1
ExecutionTime = 0.08 s  ClockTime = 0 s

Time = 5.2

smoothSolver:  Solving for Ux, Initial residual = 0, Final residual = 0, No Iterations 0
smoothSolver:  Solving for Uy, Initial residual = 0, Final residual = 0, No Iterations 0
smoothSolver:  Solving for Uz, Initial residual = 0.00154097, Final residual = 2.55176e-07, No Iterations 1
ExecutionTime = 0.08 s  ClockTime = 0 s

Time = 5.25

smoothSolver:  Solving for Ux, Initial residual = 0, Final residual = 0, No Iterations 0
smoothSolver:  Solving for Uy, Initial residual = 0, Final residual = 0, No Iterations 0
smoothSolver:  Solving for Uz, Initial residual = 0.00152103, Final residual = 2.52327e-07, No Iterations 1
ExecutionTime = 0.08 s  ClockTime = 0 s

Time = 5.3

smoothSolver:  Solving for Ux, Initial residual = 0, Final residual = 0, No Iterations 0
smoothSolver:  Solving for Uy, Initial residual = 0, Final residual = 0, No Iterations 0
smoothSolver:  Solving for Uz, Initial residual = 0.00150153, Final residual = 2.49534e-07, No Iterations 1
ExecutionTime = 0.08 s  ClockTime = 0 s

Time = 5.35

smoothSolver:  Solving for Ux, Initial residual = 0, Final residual = 0, No Iterations 0
smoothSolver:  Solving for Uy, Initial residual = 0, Final residual = 0, No Iterations 0
smoothSolver:  Solving for Uz, Initial residual = 0.00148246, Final residual = 2.46798e-07, No Iterations 1
ExecutionTime = 0.08 s  ClockTime = 0 s

Time = 5.4

smoothSolver:  Solving for Ux, Initial residual = 0, Final residual = 0, No Iterations 0
smoothSolver:  Solving for Uy, Initial residual = 0, Final residual = 0, No Iterations 0
smoothSolver:  Solving for Uz, Initial residual = 0.00146379, Final residual = 2.44116e-07, No Iterations 1
ExecutionTime = 0.08 s  ClockTime = 0 s

Time = 5.45

smoothSolver:  Solving for Ux, Initial residual = 0, Final residual = 0, No Iterations 0
smoothSolver:  Solving for Uy, Initial residual = 0, Final residual = 0, No Iterations 0
smoothSolver:  Solving for Uz, Initial residual = 0.00144552, Final residual = 2.41486e-07, No Iterations 1
ExecutionTime = 0.08 s  ClockTime = 0 s

Time = 5.5

smoothSolver:  Solving for Ux, Initial residual = 0, Final residual = 0, No Iterations 0
smoothSolver:  Solving for Uy, Initial residual = 0, Final residual = 0, No Iterations 0
smoothSolver:  Solving for Uz, Initial residual = 0.00142764, Final residual = 2.38908e-07, No Iterations 1
ExecutionTime = 0.08 s  ClockTime = 0 s

Time = 5.55

smoothSolver:  Solving for Ux, Initial residual = 0, Final residual = 0, No Iterations 0
smoothSolver:  Solving for Uy, Initial residual = 0, Final residual = 0, No Iterations 0
smoothSolver:  Solving for Uz, Initial residual = 0.00141013, Final residual = 2.3638e-07, No Iterations 1
ExecutionTime = 0.08 s  ClockTime = 0 s

Time = 5.6

smoothSolver:  Solving for Ux, Initial residual = 0, Final residual = 0, No Iterations 0
smoothSolver:  Solving for Uy, Initial residual = 0, Final residual = 0, No Iterations 0
smoothSolver:  Solving for Uz, Initial residual = 0.00139298, Final residual = 2.33899e-07, No Iterations 1
ExecutionTime = 0.08 s  ClockTime = 0 s

Time = 5.65

smoothSolver:  Solving for Ux, Initial residual = 0, Final residual = 0, No Iterations 0
smoothSolver:  Solving for Uy, Initial residual = 0, Final residual = 0, No Iterations 0
smoothSolver:  Solving for Uz, Initial residual = 0.00137619, Final residual = 2.31466e-07, No Iterations 1
ExecutionTime = 0.08 s  ClockTime = 0 s

Time = 5.7

smoothSolver:  Solving for Ux, Initial residual = 0, Final residual = 0, No Iterations 0
smoothSolver:  Solving for Uy, Initial residual = 0, Final residual = 0, No Iterations 0
smoothSolver:  Solving for Uz, Initial residual = 0.00135974, Final residual = 2.29079e-07, No Iterations 1
ExecutionTime = 0.08 s  ClockTime = 0 s

Time = 5.75

smoothSolver:  Solving for Ux, Initial residual = 0, Final residual = 0, No Iterations 0
smoothSolver:  Solving for Uy, Initial residual = 0, Final residual = 0, No Iterations 0
smoothSolver:  Solving for Uz, Initial residual = 0.00134363, Final residual = 2.26736e-07, No Iterations 1
ExecutionTime = 0.08 s  ClockTime = 0 s

Time = 5.8

smoothSolver:  Solving for Ux, Initial residual = 0, Final residual = 0, No Iterations 0
smoothSolver:  Solving for Uy, Initial residual = 0, Final residual = 0, No Iterations 0
smoothSolver:  Solving for Uz, Initial residual = 0.00132784, Final residual = 2.24437e-07, No Iterations 1
ExecutionTime = 0.08 s  ClockTime = 0 s

Time = 5.85

smoothSolver:  Solving for Ux, Initial residual = 0, Final residual = 0, No Iterations 0
smoothSolver:  Solving for Uy, Initial residual = 0, Final residual = 0, No Iterations 0
smoothSolver:  Solving for Uz, Initial residual = 0.00131237, Final residual = 2.2218e-07, No Iterations 1
ExecutionTime = 0.08 s  ClockTime = 0 s

Time = 5.9

smoothSolver:  Solving for Ux, Initial residual = 0, Final residual = 0, No Iterations 0
smoothSolver:  Solving for Uy, Initial residual = 0, Final residual = 0, No Iterations 0
smoothSolver:  Solving for Uz, Initial residual = 0.0012972, Final residual = 2.19964e-07, No Iterations 1
ExecutionTime = 0.08 s  ClockTime = 0 s

Time = 5.95

smoothSolver:  Solving for Ux, Initial residual = 0, Final residual = 0, No Iterations 0
smoothSolver:  Solving for Uy, Initial residual = 0, Final residual = 0, No Iterations 0
smoothSolver:  Solving for Uz, Initial residual = 0.00128233, Final residual = 2.17788e-07, No Iterations 1
ExecutionTime = 0.08 s  ClockTime = 0 s

Time = 6

smoothSolver:  Solving for Ux, Initial residual = 0, Final residual = 0, No Iterations 0
smoothSolver:  Solving for Uy, Initial residual = 0, Final residual = 0, No Iterations 0
smoothSolver:  Solving for Uz, Initial residual = 0.00126776, Final residual = 2.15651e-07, No Iterations 1
ExecutionTime = 0.09 s  ClockTime = 0 s

Time = 6.05

smoothSolver:  Solving for Ux, Initial residual = 0, Final residual = 0, No Iterations 0
smoothSolver:  Solving for Uy, Initial residual = 0, Final residual = 0, No Iterations 0
smoothSolver:  Solving for Uz, Initial residual = 0.00125346, Final residual = 2.13552e-07, No Iterations 1
ExecutionTime = 0.09 s  ClockTime = 0 s

Time = 6.1

smoothSolver:  Solving for Ux, Initial residual = 0, Final residual = 0, No Iterations 0
smoothSolver:  Solving for Uy, Initial residual = 0, Final residual = 0, No Iterations 0
smoothSolver:  Solving for Uz, Initial residual = 0.00123945, Final residual = 2.1149e-07, No Iterations 1
ExecutionTime = 0.09 s  ClockTime = 0 s

Time = 6.15

smoothSolver:  Solving for Ux, Initial residual = 0, Final residual = 0, No Iterations 0
smoothSolver:  Solving for Uy, Initial residual = 0, Final residual = 0, No Iterations 0
smoothSolver:  Solving for Uz, Initial residual = 0.0012257, Final residual = 2.09464e-07, No Iterations 1
ExecutionTime = 0.09 s  ClockTime = 0 s

Time = 6.2

smoothSolver:  Solving for Ux, Initial residual = 0, Final residual = 0, No Iterations 0
smoothSolver:  Solving for Uy, Initial residual = 0, Final residual = 0, No Iterations 0
smoothSolver:  Solving for Uz, Initial residual = 0.00121221, Final residual = 2.07474e-07, No Iterations 1
ExecutionTime = 0.09 s  ClockTime = 0 s

Time = 6.25

smoothSolver:  Solving for Ux, Initial residual = 0, Final residual = 0, No Iterations 0
smoothSolver:  Solving for Uy, Initial residual = 0, Final residual = 0, No Iterations 0
smoothSolver:  Solving for Uz, Initial residual = 0.00119897, Final residual = 2.05517e-07, No Iterations 1
ExecutionTime = 0.09 s  ClockTime = 0 s

Time = 6.3

smoothSolver:  Solving for Ux, Initial residual = 0, Final residual = 0, No Iterations 0
smoothSolver:  Solving for Uy, Initial residual = 0, Final residual = 0, No Iterations 0
smoothSolver:  Solving for Uz, Initial residual = 0.00118599, Final residual = 2.03595e-07, No Iterations 1
ExecutionTime = 0.09 s  ClockTime = 0 s

Time = 6.35

smoothSolver:  Solving for Ux, Initial residual = 0, Final residual = 0, No Iterations 0
smoothSolver:  Solving for Uy, Initial residual = 0, Final residual = 0, No Iterations 0
smoothSolver:  Solving for Uz, Initial residual = 0.00117324, Final residual = 2.01705e-07, No Iterations 1
ExecutionTime = 0.09 s  ClockTime = 0 s

Time = 6.4

smoothSolver:  Solving for Ux, Initial residual = 0, Final residual = 0, No Iterations 0
smoothSolver:  Solving for Uy, Initial residual = 0, Final residual = 0, No Iterations 0
smoothSolver:  Solving for Uz, Initial residual = 0.00116073, Final residual = 1.99846e-07, No Iterations 1
ExecutionTime = 0.09 s  ClockTime = 0 s

Time = 6.45

smoothSolver:  Solving for Ux, Initial residual = 0, Final residual = 0, No Iterations 0
smoothSolver:  Solving for Uy, Initial residual = 0, Final residual = 0, No Iterations 0
smoothSolver:  Solving for Uz, Initial residual = 0.00114845, Final residual = 1.98019e-07, No Iterations 1
ExecutionTime = 0.09 s  ClockTime = 0 s

Time = 6.5

smoothSolver:  Solving for Ux, Initial residual = 0, Final residual = 0, No Iterations 0
smoothSolver:  Solving for Uy, Initial residual = 0, Final residual = 0, No Iterations 0
smoothSolver:  Solving for Uz, Initial residual = 0.0011364, Final residual = 1.96223e-07, No Iterations 1
ExecutionTime = 0.09 s  ClockTime = 0 s

Time = 6.55

smoothSolver:  Solving for Ux, Initial residual = 0, Final residual = 0, No Iterations 0
smoothSolver:  Solving for Uy, Initial residual = 0, Final residual = 0, No Iterations 0
smoothSolver:  Solving for Uz, Initial residual = 0.00112456, Final residual = 1.94455e-07, No Iterations 1
ExecutionTime = 0.09 s  ClockTime = 0 s

Time = 6.6

smoothSolver:  Solving for Ux, Initial residual = 0, Final residual = 0, No Iterations 0
smoothSolver:  Solving for Uy, Initial residual = 0, Final residual = 0, No Iterations 0
smoothSolver:  Solving for Uz, Initial residual = 0.00111293, Final residual = 1.92717e-07, No Iterations 1
ExecutionTime = 0.09 s  ClockTime = 0 s

Time = 6.65

smoothSolver:  Solving for Ux, Initial residual = 0, Final residual = 0, No Iterations 0
smoothSolver:  Solving for Uy, Initial residual = 0, Final residual = 0, No Iterations 0
smoothSolver:  Solving for Uz, Initial residual = 0.00110151, Final residual = 1.91007e-07, No Iterations 1
ExecutionTime = 0.09 s  ClockTime = 0 s

Time = 6.7

smoothSolver:  Solving for Ux, Initial residual = 0, Final residual = 0, No Iterations 0
smoothSolver:  Solving for Uy, Initial residual = 0, Final residual = 0, No Iterations 0
smoothSolver:  Solving for Uz, Initial residual = 0.0010903, Final residual = 1.89325e-07, No Iterations 1
ExecutionTime = 0.09 s  ClockTime = 0 s

Time = 6.75

smoothSolver:  Solving for Ux, Initial residual = 0, Final residual = 0, No Iterations 0
smoothSolver:  Solving for Uy, Initial residual = 0, Final residual = 0, No Iterations 0
smoothSolver:  Solving for Uz, Initial residual = 0.00107928, Final residual = 1.87669e-07, No Iterations 1
ExecutionTime = 0.09 s  ClockTime = 0 s

Time = 6.8

smoothSolver:  Solving for Ux, Initial residual = 0, Final residual = 0, No Iterations 0
smoothSolver:  Solving for Uy, Initial residual = 0, Final residual = 0, No Iterations 0
smoothSolver:  Solving for Uz, Initial residual = 0.00106843, Final residual = 1.86037e-07, No Iterations 1
ExecutionTime = 0.1 s  ClockTime = 0 s

Time = 6.85

smoothSolver:  Solving for Ux, Initial residual = 0, Final residual = 0, No Iterations 0
smoothSolver:  Solving for Uy, Initial residual = 0, Final residual = 0, No Iterations 0
smoothSolver:  Solving for Uz, Initial residual = 0.00105776, Final residual = 1.84428e-07, No Iterations 1
ExecutionTime = 0.1 s  ClockTime = 0 s

Time = 6.9

smoothSolver:  Solving for Ux, Initial residual = 0, Final residual = 0, No Iterations 0
smoothSolver:  Solving for Uy, Initial residual = 0, Final residual = 0, No Iterations 0
smoothSolver:  Solving for Uz, Initial residual = 0.00104726, Final residual = 1.82842e-07, No Iterations 1
ExecutionTime = 0.1 s  ClockTime = 0 s

Time = 6.95

smoothSolver:  Solving for Ux, Initial residual = 0, Final residual = 0, No Iterations 0
smoothSolver:  Solving for Uy, Initial residual = 0, Final residual = 0, No Iterations 0
smoothSolver:  Solving for Uz, Initial residual = 0.00103694, Final residual = 1.8128e-07, No Iterations 1
ExecutionTime = 0.1 s  ClockTime = 0 s

Time = 7

smoothSolver:  Solving for Ux, Initial residual = 0, Final residual = 0, No Iterations 0
smoothSolver:  Solving for Uy, Initial residual = 0, Final residual = 0, No Iterations 0
smoothSolver:  Solving for Uz, Initial residual = 0.00102679, Final residual = 1.79742e-07, No Iterations 1
ExecutionTime = 0.1 s  ClockTime = 0 s

Time = 7.05

smoothSolver:  Solving for Ux, Initial residual = 0, Final residual = 0, No Iterations 0
smoothSolver:  Solving for Uy, Initial residual = 0, Final residual = 0, No Iterations 0
smoothSolver:  Solving for Uz, Initial residual = 0.00101681, Final residual = 1.78227e-07, No Iterations 1
ExecutionTime = 0.1 s  ClockTime = 0 s

Time = 7.1

smoothSolver:  Solving for Ux, Initial residual = 0, Final residual = 0, No Iterations 0
smoothSolver:  Solving for Uy, Initial residual = 0, Final residual = 0, No Iterations 0
smoothSolver:  Solving for Uz, Initial residual = 0.001007, Final residual = 1.76736e-07, No Iterations 1
ExecutionTime = 0.1 s  ClockTime = 0 s

Time = 7.15

smoothSolver:  Solving for Ux, Initial residual = 0, Final residual = 0, No Iterations 0
smoothSolver:  Solving for Uy, Initial residual = 0, Final residual = 0, No Iterations 0
smoothSolver:  Solving for Uz, Initial residual = 0.00099735, Final residual = 1.75267e-07, No Iterations 1
ExecutionTime = 0.1 s  ClockTime = 0 s

Time = 7.2

smoothSolver:  Solving for Ux, Initial residual = 0, Final residual = 0, No Iterations 0
smoothSolver:  Solving for Uy, Initial residual = 0, Final residual = 0, No Iterations 0
smoothSolver:  Solving for Uz, Initial residual = 0.000987864, Final residual = 1.7382e-07, No Iterations 1
ExecutionTime = 0.1 s  ClockTime = 0 s

Time = 7.25

smoothSolver:  Solving for Ux, Initial residual = 0, Final residual = 0, No Iterations 0
smoothSolver:  Solving for Uy, Initial residual = 0, Final residual = 0, No Iterations 0
smoothSolver:  Solving for Uz, Initial residual = 0.000978534, Final residual = 1.72396e-07, No Iterations 1
ExecutionTime = 0.1 s  ClockTime = 0 s

Time = 7.3

smoothSolver:  Solving for Ux, Initial residual = 0, Final residual = 0, No Iterations 0
smoothSolver:  Solving for Uy, Initial residual = 0, Final residual = 0, No Iterations 0
smoothSolver:  Solving for Uz, Initial residual = 0.000969358, Final residual = 1.70992e-07, No Iterations 1
ExecutionTime = 0.1 s  ClockTime = 0 s

Time = 7.35

smoothSolver:  Solving for Ux, Initial residual = 0, Final residual = 0, No Iterations 0
smoothSolver:  Solving for Uy, Initial residual = 0, Final residual = 0, No Iterations 0
smoothSolver:  Solving for Uz, Initial residual = 0.000960332, Final residual = 1.69609e-07, No Iterations 1
ExecutionTime = 0.1 s  ClockTime = 0 s

Time = 7.4

smoothSolver:  Solving for Ux, Initial residual = 0, Final residual = 0, No Iterations 0
smoothSolver:  Solving for Uy, Initial residual = 0, Final residual = 0, No Iterations 0
smoothSolver:  Solving for Uz, Initial residual = 0.000951452, Final residual = 1.68247e-07, No Iterations 1
ExecutionTime = 0.1 s  ClockTime = 0 s

Time = 7.45

smoothSolver:  Solving for Ux, Initial residual = 0, Final residual = 0, No Iterations 0
smoothSolver:  Solving for Uy, Initial residual = 0, Final residual = 0, No Iterations 0
smoothSolver:  Solving for Uz, Initial residual = 0.000942715, Final residual = 1.66904e-07, No Iterations 1
ExecutionTime = 0.1 s  ClockTime = 0 s

Time = 7.5

smoothSolver:  Solving for Ux, Initial residual = 0, Final residual = 0, No Iterations 0
smoothSolver:  Solving for Uy, Initial residual = 0, Final residual = 0, No Iterations 0
smoothSolver:  Solving for Uz, Initial residual = 0.000934119, Final residual = 1.65581e-07, No Iterations 1
ExecutionTime = 0.1 s  ClockTime = 0 s

Time = 7.55

smoothSolver:  Solving for Ux, Initial residual = 0, Final residual = 0, No Iterations 0
smoothSolver:  Solving for Uy, Initial residual = 0, Final residual = 0, No Iterations 0
smoothSolver:  Solving for Uz, Initial residual = 0.000925659, Final residual = 1.64277e-07, No Iterations 1
ExecutionTime = 0.1 s  ClockTime = 0 s

Time = 7.6

smoothSolver:  Solving for Ux, Initial residual = 0, Final residual = 0, No Iterations 0
smoothSolver:  Solving for Uy, Initial residual = 0, Final residual = 0, No Iterations 0
smoothSolver:  Solving for Uz, Initial residual = 0.000917328, Final residual = 1.62991e-07, No Iterations 1
ExecutionTime = 0.1 s  ClockTime = 0 s

Time = 7.65

smoothSolver:  Solving for Ux, Initial residual = 0, Final residual = 0, No Iterations 0
smoothSolver:  Solving for Uy, Initial residual = 0, Final residual = 0, No Iterations 0
smoothSolver:  Solving for Uz, Initial residual = 0.000909127, Final residual = 1.61723e-07, No Iterations 1
ExecutionTime = 0.11 s  ClockTime = 0 s

Time = 7.7

smoothSolver:  Solving for Ux, Initial residual = 0, Final residual = 0, No Iterations 0
smoothSolver:  Solving for Uy, Initial residual = 0, Final residual = 0, No Iterations 0
smoothSolver:  Solving for Uz, Initial residual = 0.000901049, Final residual = 1.60472e-07, No Iterations 1
ExecutionTime = 0.11 s  ClockTime = 0 s

Time = 7.75

smoothSolver:  Solving for Ux, Initial residual = 0, Final residual = 0, No Iterations 0
smoothSolver:  Solving for Uy, Initial residual = 0, Final residual = 0, No Iterations 0
smoothSolver:  Solving for Uz, Initial residual = 0.000893097, Final residual = 1.59238e-07, No Iterations 1
ExecutionTime = 0.11 s  ClockTime = 0 s

Time = 7.8

smoothSolver:  Solving for Ux, Initial residual = 0, Final residual = 0, No Iterations 0
smoothSolver:  Solving for Uy, Initial residual = 0, Final residual = 0, No Iterations 0
smoothSolver:  Solving for Uz, Initial residual = 0.000885267, Final residual = 1.58022e-07, No Iterations 1
ExecutionTime = 0.11 s  ClockTime = 0 s

Time = 7.85

smoothSolver:  Solving for Ux, Initial residual = 0, Final residual = 0, No Iterations 0
smoothSolver:  Solving for Uy, Initial residual = 0, Final residual = 0, No Iterations 0
smoothSolver:  Solving for Uz, Initial residual = 0.000877558, Final residual = 1.56823e-07, No Iterations 1
ExecutionTime = 0.11 s  ClockTime = 0 s

Time = 7.9

smoothSolver:  Solving for Ux, Initial residual = 0, Final residual = 0, No Iterations 0
smoothSolver:  Solving for Uy, Initial residual = 0, Final residual = 0, No Iterations 0
smoothSolver:  Solving for Uz, Initial residual = 0.000869967, Final residual = 1.5564e-07, No Iterations 1
ExecutionTime = 0.11 s  ClockTime = 0 s

Time = 7.95

smoothSolver:  Solving for Ux, Initial residual = 0, Final residual = 0, No Iterations 0
smoothSolver:  Solving for Uy, Initial residual = 0, Final residual = 0, No Iterations 0
smoothSolver:  Solving for Uz, Initial residual = 0.000862491, Final residual = 1.54474e-07, No Iterations 1
ExecutionTime = 0.11 s  ClockTime = 0 s

Time = 8

smoothSolver:  Solving for Ux, Initial residual = 0, Final residual = 0, No Iterations 0
smoothSolver:  Solving for Uy, Initial residual = 0, Final residual = 0, No Iterations 0
smoothSolver:  Solving for Uz, Initial residual = 0.000855128, Final residual = 1.53324e-07, No Iterations 1
ExecutionTime = 0.11 s  ClockTime = 0 s

Time = 8.05

smoothSolver:  Solving for Ux, Initial residual = 0, Final residual = 0, No Iterations 0
smoothSolver:  Solving for Uy, Initial residual = 0, Final residual = 0, No Iterations 0
smoothSolver:  Solving for Uz, Initial residual = 0.000847876, Final residual = 1.52189e-07, No Iterations 1
ExecutionTime = 0.11 s  ClockTime = 0 s

Time = 8.1

smoothSolver:  Solving for Ux, Initial residual = 0, Final residual = 0, No Iterations 0
smoothSolver:  Solving for Uy, Initial residual = 0, Final residual = 0, No Iterations 0
smoothSolver:  Solving for Uz, Initial residual = 0.000840731, Final residual = 1.51069e-07, No Iterations 1
ExecutionTime = 0.11 s  ClockTime = 0 s

Time = 8.15

smoothSolver:  Solving for Ux, Initial residual = 0, Final residual = 0, No Iterations 0
smoothSolver:  Solving for Uy, Initial residual = 0, Final residual = 0, No Iterations 0
smoothSolver:  Solving for Uz, Initial residual = 0.000833693, Final residual = 1.49965e-07, No Iterations 1
ExecutionTime = 0.11 s  ClockTime = 0 s

Time = 8.2

smoothSolver:  Solving for Ux, Initial residual = 0, Final residual = 0, No Iterations 0
smoothSolver:  Solving for Uy, Initial residual = 0, Final residual = 0, No Iterations 0
smoothSolver:  Solving for Uz, Initial residual = 0.000826759, Final residual = 1.48875e-07, No Iterations 1
ExecutionTime = 0.11 s  ClockTime = 0 s

Time = 8.25

smoothSolver:  Solving for Ux, Initial residual = 0, Final residual = 0, No Iterations 0
smoothSolver:  Solving for Uy, Initial residual = 0, Final residual = 0, No Iterations 0
smoothSolver:  Solving for Uz, Initial residual = 0.000819926, Final residual = 1.478e-07, No Iterations 1
ExecutionTime = 0.11 s  ClockTime = 0 s

Time = 8.3

smoothSolver:  Solving for Ux, Initial residual = 0, Final residual = 0, No Iterations 0
smoothSolver:  Solving for Uy, Initial residual = 0, Final residual = 0, No Iterations 0
smoothSolver:  Solving for Uz, Initial residual = 0.000813193, Final residual = 1.46738e-07, No Iterations 1
ExecutionTime = 0.11 s  ClockTime = 0 s

Time = 8.35

smoothSolver:  Solving for Ux, Initial residual = 0, Final residual = 0, No Iterations 0
smoothSolver:  Solving for Uy, Initial residual = 0, Final residual = 0, No Iterations 0
smoothSolver:  Solving for Uz, Initial residual = 0.000806558, Final residual = 1.45691e-07, No Iterations 1
ExecutionTime = 0.11 s  ClockTime = 0 s

Time = 8.4

smoothSolver:  Solving for Ux, Initial residual = 0, Final residual = 0, No Iterations 0
smoothSolver:  Solving for Uy, Initial residual = 0, Final residual = 0, No Iterations 0
smoothSolver:  Solving for Uz, Initial residual = 0.000800018, Final residual = 1.44658e-07, No Iterations 1
ExecutionTime = 0.11 s  ClockTime = 0 s

Time = 8.45

smoothSolver:  Solving for Ux, Initial residual = 0, Final residual = 0, No Iterations 0
smoothSolver:  Solving for Uy, Initial residual = 0, Final residual = 0, No Iterations 0
smoothSolver:  Solving for Uz, Initial residual = 0.000793572, Final residual = 1.43637e-07, No Iterations 1
ExecutionTime = 0.12 s  ClockTime = 0 s

Time = 8.5

smoothSolver:  Solving for Ux, Initial residual = 0, Final residual = 0, No Iterations 0
smoothSolver:  Solving for Uy, Initial residual = 0, Final residual = 0, No Iterations 0
smoothSolver:  Solving for Uz, Initial residual = 0.000787218, Final residual = 1.4263e-07, No Iterations 1
ExecutionTime = 0.12 s  ClockTime = 0 s

Time = 8.55

smoothSolver:  Solving for Ux, Initial residual = 0, Final residual = 0, No Iterations 0
smoothSolver:  Solving for Uy, Initial residual = 0, Final residual = 0, No Iterations 0
smoothSolver:  Solving for Uz, Initial residual = 0.000780955, Final residual = 1.41636e-07, No Iterations 1
ExecutionTime = 0.12 s  ClockTime = 0 s

Time = 8.6

smoothSolver:  Solving for Ux, Initial residual = 0, Final residual = 0, No Iterations 0
smoothSolver:  Solving for Uy, Initial residual = 0, Final residual = 0, No Iterations 0
smoothSolver:  Solving for Uz, Initial residual = 0.000774779, Final residual = 1.40655e-07, No Iterations 1
ExecutionTime = 0.12 s  ClockTime = 0 s

Time = 8.65

smoothSolver:  Solving for Ux, Initial residual = 0, Final residual = 0, No Iterations 0
smoothSolver:  Solving for Uy, Initial residual = 0, Final residual = 0, No Iterations 0
smoothSolver:  Solving for Uz, Initial residual = 0.00076869, Final residual = 1.39686e-07, No Iterations 1
ExecutionTime = 0.12 s  ClockTime = 0 s

Time = 8.7

smoothSolver:  Solving for Ux, Initial residual = 0, Final residual = 0, No Iterations 0
smoothSolver:  Solving for Uy, Initial residual = 0, Final residual = 0, No Iterations 0
smoothSolver:  Solving for Uz, Initial residual = 0.000762687, Final residual = 1.38729e-07, No Iterations 1
ExecutionTime = 0.12 s  ClockTime = 0 s

Time = 8.75

smoothSolver:  Solving for Ux, Initial residual = 0, Final residual = 0, No Iterations 0
smoothSolver:  Solving for Uy, Initial residual = 0, Final residual = 0, No Iterations 0
smoothSolver:  Solving for Uz, Initial residual = 0.000756766, Final residual = 1.37784e-07, No Iterations 1
ExecutionTime = 0.12 s  ClockTime = 0 s

Time = 8.8

smoothSolver:  Solving for Ux, Initial residual = 0, Final residual = 0, No Iterations 0
smoothSolver:  Solving for Uy, Initial residual = 0, Final residual = 0, No Iterations 0
smoothSolver:  Solving for Uz, Initial residual = 0.000750927, Final residual = 1.36851e-07, No Iterations 1
ExecutionTime = 0.12 s  ClockTime = 0 s

Time = 8.85

smoothSolver:  Solving for Ux, Initial residual = 0, Final residual = 0, No Iterations 0
smoothSolver:  Solving for Uy, Initial residual = 0, Final residual = 0, No Iterations 0
smoothSolver:  Solving for Uz, Initial residual = 0.000745168, Final residual = 1.35929e-07, No Iterations 1
ExecutionTime = 0.12 s  ClockTime = 0 s

Time = 8.9

smoothSolver:  Solving for Ux, Initial residual = 0, Final residual = 0, No Iterations 0
smoothSolver:  Solving for Uy, Initial residual = 0, Final residual = 0, No Iterations 0
smoothSolver:  Solving for Uz, Initial residual = 0.000739488, Final residual = 1.35019e-07, No Iterations 1
ExecutionTime = 0.12 s  ClockTime = 0 s

Time = 8.95

smoothSolver:  Solving for Ux, Initial residual = 0, Final residual = 0, No Iterations 0
smoothSolver:  Solving for Uy, Initial residual = 0, Final residual = 0, No Iterations 0
smoothSolver:  Solving for Uz, Initial residual = 0.000733885, Final residual = 1.3412e-07, No Iterations 1
ExecutionTime = 0.12 s  ClockTime = 0 s

Time = 9

smoothSolver:  Solving for Ux, Initial residual = 0, Final residual = 0, No Iterations 0
smoothSolver:  Solving for Uy, Initial residual = 0, Final residual = 0, No Iterations 0
smoothSolver:  Solving for Uz, Initial residual = 0.000728357, Final residual = 1.33232e-07, No Iterations 1
ExecutionTime = 0.12 s  ClockTime = 0 s

Time = 9.05

smoothSolver:  Solving for Ux, Initial residual = 0, Final residual = 0, No Iterations 0
smoothSolver:  Solving for Uy, Initial residual = 0, Final residual = 0, No Iterations 0
smoothSolver:  Solving for Uz, Initial residual = 0.000722904, Final residual = 1.32354e-07, No Iterations 1
ExecutionTime = 0.12 s  ClockTime = 0 s

Time = 9.1

smoothSolver:  Solving for Ux, Initial residual = 0, Final residual = 0, No Iterations 0
smoothSolver:  Solving for Uy, Initial residual = 0, Final residual = 0, No Iterations 0
smoothSolver:  Solving for Uz, Initial residual = 0.000717524, Final residual = 1.31487e-07, No Iterations 1
ExecutionTime = 0.12 s  ClockTime = 0 s

Time = 9.15

smoothSolver:  Solving for Ux, Initial residual = 0, Final residual = 0, No Iterations 0
smoothSolver:  Solving for Uy, Initial residual = 0, Final residual = 0, No Iterations 0
smoothSolver:  Solving for Uz, Initial residual = 0.000712215, Final residual = 1.30631e-07, No Iterations 1
ExecutionTime = 0.12 s  ClockTime = 0 s

Time = 9.2

smoothSolver:  Solving for Ux, Initial residual = 0, Final residual = 0, No Iterations 0
smoothSolver:  Solving for Uy, Initial residual = 0, Final residual = 0, No Iterations 0
smoothSolver:  Solving for Uz, Initial residual = 0.000706976, Final residual = 1.29785e-07, No Iterations 1
ExecutionTime = 0.12 s  ClockTime = 0 s

Time = 9.25

smoothSolver:  Solving for Ux, Initial residual = 0, Final residual = 0, No Iterations 0
smoothSolver:  Solving for Uy, Initial residual = 0, Final residual = 0, No Iterations 0
smoothSolver:  Solving for Uz, Initial residual = 0.000701806, Final residual = 1.28948e-07, No Iterations 1
ExecutionTime = 0.12 s  ClockTime = 0 s

Time = 9.3

smoothSolver:  Solving for Ux, Initial residual = 0, Final residual = 0, No Iterations 0
smoothSolver:  Solving for Uy, Initial residual = 0, Final residual = 0, No Iterations 0
smoothSolver:  Solving for Uz, Initial residual = 0.000696704, Final residual = 1.28122e-07, No Iterations 1
ExecutionTime = 0.13 s  ClockTime = 0 s

Time = 9.35

smoothSolver:  Solving for Ux, Initial residual = 0, Final residual = 0, No Iterations 0
smoothSolver:  Solving for Uy, Initial residual = 0, Final residual = 0, No Iterations 0
smoothSolver:  Solving for Uz, Initial residual = 0.000691668, Final residual = 1.27306e-07, No Iterations 1
ExecutionTime = 0.13 s  ClockTime = 0 s

Time = 9.4

smoothSolver:  Solving for Ux, Initial residual = 0, Final residual = 0, No Iterations 0
smoothSolver:  Solving for Uy, Initial residual = 0, Final residual = 0, No Iterations 0
smoothSolver:  Solving for Uz, Initial residual = 0.000686697, Final residual = 1.26498e-07, No Iterations 1
ExecutionTime = 0.13 s  ClockTime = 0 s

Time = 9.45

smoothSolver:  Solving for Ux, Initial residual = 0, Final residual = 0, No Iterations 0
smoothSolver:  Solving for Uy, Initial residual = 0, Final residual = 0, No Iterations 0
smoothSolver:  Solving for Uz, Initial residual = 0.000681791, Final residual = 1.25701e-07, No Iterations 1
ExecutionTime = 0.13 s  ClockTime = 0 s

Time = 9.5

smoothSolver:  Solving for Ux, Initial residual = 0, Final residual = 0, No Iterations 0
smoothSolver:  Solving for Uy, Initial residual = 0, Final residual = 0, No Iterations 0
smoothSolver:  Solving for Uz, Initial residual = 0.000676947, Final residual = 1.24912e-07, No Iterations 1
ExecutionTime = 0.13 s  ClockTime = 0 s

Time = 9.55

smoothSolver:  Solving for Ux, Initial residual = 0, Final residual = 0, No Iterations 0
smoothSolver:  Solving for Uy, Initial residual = 0, Final residual = 0, No Iterations 0
smoothSolver:  Solving for Uz, Initial residual = 0.000672164, Final residual = 1.24133e-07, No Iterations 1
ExecutionTime = 0.13 s  ClockTime = 0 s

Time = 9.6

smoothSolver:  Solving for Ux, Initial residual = 0, Final residual = 0, No Iterations 0
smoothSolver:  Solving for Uy, Initial residual = 0, Final residual = 0, No Iterations 0
smoothSolver:  Solving for Uz, Initial residual = 0.000667443, Final residual = 1.23362e-07, No Iterations 1
ExecutionTime = 0.13 s  ClockTime = 0 s

Time = 9.65

smoothSolver:  Solving for Ux, Initial residual = 0, Final residual = 0, No Iterations 0
smoothSolver:  Solving for Uy, Initial residual = 0, Final residual = 0, No Iterations 0
smoothSolver:  Solving for Uz, Initial residual = 0.000662781, Final residual = 1.226e-07, No Iterations 1
ExecutionTime = 0.13 s  ClockTime = 0 s

Time = 9.7

smoothSolver:  Solving for Ux, Initial residual = 0, Final residual = 0, No Iterations 0
smoothSolver:  Solving for Uy, Initial residual = 0, Final residual = 0, No Iterations 0
smoothSolver:  Solving for Uz, Initial residual = 0.000658177, Final residual = 1.21847e-07, No Iterations 1
ExecutionTime = 0.13 s  ClockTime = 0 s

Time = 9.75

smoothSolver:  Solving for Ux, Initial residual = 0, Final residual = 0, No Iterations 0
smoothSolver:  Solving for Uy, Initial residual = 0, Final residual = 0, No Iterations 0
smoothSolver:  Solving for Uz, Initial residual = 0.000653631, Final residual = 1.21102e-07, No Iterations 1
ExecutionTime = 0.13 s  ClockTime = 0 s

Time = 9.8

smoothSolver:  Solving for Ux, Initial residual = 0, Final residual = 0, No Iterations 0
smoothSolver:  Solving for Uy, Initial residual = 0, Final residual = 0, No Iterations 0
smoothSolver:  Solving for Uz, Initial residual = 0.000649141, Final residual = 1.20366e-07, No Iterations 1
ExecutionTime = 0.13 s  ClockTime = 0 s

Time = 9.85

smoothSolver:  Solving for Ux, Initial residual = 0, Final residual = 0, No Iterations 0
smoothSolver:  Solving for Uy, Initial residual = 0, Final residual = 0, No Iterations 0
smoothSolver:  Solving for Uz, Initial residual = 0.000644707, Final residual = 1.19638e-07, No Iterations 1
ExecutionTime = 0.13 s  ClockTime = 0 s

Time = 9.9

smoothSolver:  Solving for Ux, Initial residual = 0, Final residual = 0, No Iterations 0
smoothSolver:  Solving for Uy, Initial residual = 0, Final residual = 0, No Iterations 0
smoothSolver:  Solving for Uz, Initial residual = 0.000640327, Final residual = 1.18918e-07, No Iterations 1
ExecutionTime = 0.13 s  ClockTime = 0 s

Time = 9.95

smoothSolver:  Solving for Ux, Initial residual = 0, Final residual = 0, No Iterations 0
smoothSolver:  Solving for Uy, Initial residual = 0, Final residual = 0, No Iterations 0
smoothSolver:  Solving for Uz, Initial residual = 0.000636001, Final residual = 1.18206e-07, No Iterations 1
ExecutionTime = 0.13 s  ClockTime = 0 s

Time = 10

smoothSolver:  Solving for Ux, Initial residual = 0, Final residual = 0, No Iterations 0
smoothSolver:  Solving for Uy, Initial residual = 0, Final residual = 0, No Iterations 0
smoothSolver:  Solving for Uz, Initial residual = 0.000631728, Final residual = 1.17501e-07, No Iterations 1
ExecutionTime = 0.14 s  ClockTime = 0 s

Time = 10.05

smoothSolver:  Solving for Ux, Initial residual = 0, Final residual = 0, No Iterations 0
smoothSolver:  Solving for Uy, Initial residual = 0, Final residual = 0, No Iterations 0
smoothSolver:  Solving for Uz, Initial residual = 0.000627506, Final residual = 1.16805e-07, No Iterations 1
ExecutionTime = 0.14 s  ClockTime = 0 s

Time = 10.1

smoothSolver:  Solving for Ux, Initial residual = 0, Final residual = 0, No Iterations 0
smoothSolver:  Solving for Uy, Initial residual = 0, Final residual = 0, No Iterations 0
smoothSolver:  Solving for Uz, Initial residual = 0.000623335, Final residual = 1.16115e-07, No Iterations 1
ExecutionTime = 0.14 s  ClockTime = 0 s

Time = 10.15

smoothSolver:  Solving for Ux, Initial residual = 0, Final residual = 0, No Iterations 0
smoothSolver:  Solving for Uy, Initial residual = 0, Final residual = 0, No Iterations 0
smoothSolver:  Solving for Uz, Initial residual = 0.000619214, Final residual = 1.15434e-07, No Iterations 1
ExecutionTime = 0.14 s  ClockTime = 0 s

Time = 10.2

smoothSolver:  Solving for Ux, Initial residual = 0, Final residual = 0, No Iterations 0
smoothSolver:  Solving for Uy, Initial residual = 0, Final residual = 0, No Iterations 0
smoothSolver:  Solving for Uz, Initial residual = 0.000615142, Final residual = 1.1476e-07, No Iterations 1
ExecutionTime = 0.14 s  ClockTime = 0 s

Time = 10.25

smoothSolver:  Solving for Ux, Initial residual = 0, Final residual = 0, No Iterations 0
smoothSolver:  Solving for Uy, Initial residual = 0, Final residual = 0, No Iterations 0
smoothSolver:  Solving for Uz, Initial residual = 0.000611119, Final residual = 1.14092e-07, No Iterations 1
ExecutionTime = 0.14 s  ClockTime = 0 s

Time = 10.3

smoothSolver:  Solving for Ux, Initial residual = 0, Final residual = 0, No Iterations 0
smoothSolver:  Solving for Uy, Initial residual = 0, Final residual = 0, No Iterations 0
smoothSolver:  Solving for Uz, Initial residual = 0.000607143, Final residual = 1.13432e-07, No Iterations 1
ExecutionTime = 0.14 s  ClockTime = 0 s

Time = 10.35

smoothSolver:  Solving for Ux, Initial residual = 0, Final residual = 0, No Iterations 0
smoothSolver:  Solving for Uy, Initial residual = 0, Final residual = 0, No Iterations 0
smoothSolver:  Solving for Uz, Initial residual = 0.000603214, Final residual = 1.12779e-07, No Iterations 1
ExecutionTime = 0.14 s  ClockTime = 0 s

Time = 10.4

smoothSolver:  Solving for Ux, Initial residual = 0, Final residual = 0, No Iterations 0
smoothSolver:  Solving for Uy, Initial residual = 0, Final residual = 0, No Iterations 0
smoothSolver:  Solving for Uz, Initial residual = 0.000599331, Final residual = 1.12133e-07, No Iterations 1
ExecutionTime = 0.14 s  ClockTime = 0 s

Time = 10.45

smoothSolver:  Solving for Ux, Initial residual = 0, Final residual = 0, No Iterations 0
smoothSolver:  Solving for Uy, Initial residual = 0, Final residual = 0, No Iterations 0
smoothSolver:  Solving for Uz, Initial residual = 0.000595492, Final residual = 1.11494e-07, No Iterations 1
ExecutionTime = 0.14 s  ClockTime = 0 s

Time = 10.5

smoothSolver:  Solving for Ux, Initial residual = 0, Final residual = 0, No Iterations 0
smoothSolver:  Solving for Uy, Initial residual = 0, Final residual = 0, No Iterations 0
smoothSolver:  Solving for Uz, Initial residual = 0.000591699, Final residual = 1.10861e-07, No Iterations 1
ExecutionTime = 0.15 s  ClockTime = 0 s

Time = 10.55

smoothSolver:  Solving for Ux, Initial residual = 0, Final residual = 0, No Iterations 0
smoothSolver:  Solving for Uy, Initial residual = 0, Final residual = 0, No Iterations 0
smoothSolver:  Solving for Uz, Initial residual = 0.000587949, Final residual = 1.10235e-07, No Iterations 1
ExecutionTime = 0.15 s  ClockTime = 0 s

Time = 10.6

smoothSolver:  Solving for Ux, Initial residual = 0, Final residual = 0, No Iterations 0
smoothSolver:  Solving for Uy, Initial residual = 0, Final residual = 0, No Iterations 0
smoothSolver:  Solving for Uz, Initial residual = 0.000584242, Final residual = 1.09616e-07, No Iterations 1
ExecutionTime = 0.15 s  ClockTime = 0 s

Time = 10.65

smoothSolver:  Solving for Ux, Initial residual = 0, Final residual = 0, No Iterations 0
smoothSolver:  Solving for Uy, Initial residual = 0, Final residual = 0, No Iterations 0
smoothSolver:  Solving for Uz, Initial residual = 0.000580578, Final residual = 1.09003e-07, No Iterations 1
ExecutionTime = 0.15 s  ClockTime = 0 s

Time = 10.7

smoothSolver:  Solving for Ux, Initial residual = 0, Final residual = 0, No Iterations 0
smoothSolver:  Solving for Uy, Initial residual = 0, Final residual = 0, No Iterations 0
smoothSolver:  Solving for Uz, Initial residual = 0.000576955, Final residual = 1.08396e-07, No Iterations 1
ExecutionTime = 0.15 s  ClockTime = 0 s

Time = 10.75

smoothSolver:  Solving for Ux, Initial residual = 0, Final residual = 0, No Iterations 0
smoothSolver:  Solving for Uy, Initial residual = 0, Final residual = 0, No Iterations 0
smoothSolver:  Solving for Uz, Initial residual = 0.000573373, Final residual = 1.07795e-07, No Iterations 1
ExecutionTime = 0.15 s  ClockTime = 0 s

Time = 10.8

smoothSolver:  Solving for Ux, Initial residual = 0, Final residual = 0, No Iterations 0
smoothSolver:  Solving for Uy, Initial residual = 0, Final residual = 0, No Iterations 0
smoothSolver:  Solving for Uz, Initial residual = 0.000569831, Final residual = 1.072e-07, No Iterations 1
ExecutionTime = 0.15 s  ClockTime = 0 s

Time = 10.85

smoothSolver:  Solving for Ux, Initial residual = 0, Final residual = 0, No Iterations 0
smoothSolver:  Solving for Uy, Initial residual = 0, Final residual = 0, No Iterations 0
smoothSolver:  Solving for Uz, Initial residual = 0.000566329, Final residual = 1.06612e-07, No Iterations 1
ExecutionTime = 0.15 s  ClockTime = 0 s

Time = 10.9

smoothSolver:  Solving for Ux, Initial residual = 0, Final residual = 0, No Iterations 0
smoothSolver:  Solving for Uy, Initial residual = 0, Final residual = 0, No Iterations 0
smoothSolver:  Solving for Uz, Initial residual = 0.000562866, Final residual = 1.06029e-07, No Iterations 1
ExecutionTime = 0.15 s  ClockTime = 0 s

Time = 10.95

smoothSolver:  Solving for Ux, Initial residual = 0, Final residual = 0, No Iterations 0
smoothSolver:  Solving for Uy, Initial residual = 0, Final residual = 0, No Iterations 0
smoothSolver:  Solving for Uz, Initial residual = 0.000559442, Final residual = 1.05452e-07, No Iterations 1
ExecutionTime = 0.15 s  ClockTime = 0 s

Time = 11

smoothSolver:  Solving for Ux, Initial residual = 0, Final residual = 0, No Iterations 0
smoothSolver:  Solving for Uy, Initial residual = 0, Final residual = 0, No Iterations 0
smoothSolver:  Solving for Uz, Initial residual = 0.000556055, Final residual = 1.04881e-07, No Iterations 1
ExecutionTime = 0.15 s  ClockTime = 0 s

Time = 11.05

smoothSolver:  Solving for Ux, Initial residual = 0, Final residual = 0, No Iterations 0
smoothSolver:  Solving for Uy, Initial residual = 0, Final residual = 0, No Iterations 0
smoothSolver:  Solving for Uz, Initial residual = 0.000552705, Final residual = 1.04316e-07, No Iterations 1
ExecutionTime = 0.15 s  ClockTime = 0 s

Time = 11.1

smoothSolver:  Solving for Ux, Initial residual = 0, Final residual = 0, No Iterations 0
smoothSolver:  Solving for Uy, Initial residual = 0, Final residual = 0, No Iterations 0
smoothSolver:  Solving for Uz, Initial residual = 0.000549393, Final residual = 1.03756e-07, No Iterations 1
ExecutionTime = 0.15 s  ClockTime = 0 s

Time = 11.15

smoothSolver:  Solving for Ux, Initial residual = 0, Final residual = 0, No Iterations 0
smoothSolver:  Solving for Uy, Initial residual = 0, Final residual = 0, No Iterations 0
smoothSolver:  Solving for Uz, Initial residual = 0.000546116, Final residual = 1.03201e-07, No Iterations 1
ExecutionTime = 0.15 s  ClockTime = 0 s

Time = 11.2

smoothSolver:  Solving for Ux, Initial residual = 0, Final residual = 0, No Iterations 0
smoothSolver:  Solving for Uy, Initial residual = 0, Final residual = 0, No Iterations 0
smoothSolver:  Solving for Uz, Initial residual = 0.000542872, Final residual = 1.02652e-07, No Iterations 1
ExecutionTime = 0.15 s  ClockTime = 0 s

Time = 11.25

smoothSolver:  Solving for Ux, Initial residual = 0, Final residual = 0, No Iterations 0
smoothSolver:  Solving for Uy, Initial residual = 0, Final residual = 0, No Iterations 0
smoothSolver:  Solving for Uz, Initial residual = 0.000539658, Final residual = 1.02107e-07, No Iterations 1
ExecutionTime = 0.15 s  ClockTime = 0 s

Time = 11.3

smoothSolver:  Solving for Ux, Initial residual = 0, Final residual = 0, No Iterations 0
smoothSolver:  Solving for Uy, Initial residual = 0, Final residual = 0, No Iterations 0
smoothSolver:  Solving for Uz, Initial residual = 0.000536471, Final residual = 1.01566e-07, No Iterations 1
ExecutionTime = 0.16 s  ClockTime = 0 s

Time = 11.35

smoothSolver:  Solving for Ux, Initial residual = 0, Final residual = 0, No Iterations 0
smoothSolver:  Solving for Uy, Initial residual = 0, Final residual = 0, No Iterations 0
smoothSolver:  Solving for Uz, Initial residual = 0.000533313, Final residual = 1.01029e-07, No Iterations 1
ExecutionTime = 0.16 s  ClockTime = 0 s

Time = 11.4

smoothSolver:  Solving for Ux, Initial residual = 0, Final residual = 0, No Iterations 0
smoothSolver:  Solving for Uy, Initial residual = 0, Final residual = 0, No Iterations 0
smoothSolver:  Solving for Uz, Initial residual = 0.000530188, Final residual = 1.00497e-07, No Iterations 1
ExecutionTime = 0.16 s  ClockTime = 0 s

Time = 11.45

smoothSolver:  Solving for Ux, Initial residual = 0, Final residual = 0, No Iterations 0
smoothSolver:  Solving for Uy, Initial residual = 0, Final residual = 0, No Iterations 0
smoothSolver:  Solving for Uz, Initial residual = 0.000527096, Final residual = 9.99701e-08, No Iterations 1
ExecutionTime = 0.16 s  ClockTime = 0 s

Time = 11.5

smoothSolver:  Solving for Ux, Initial residual = 0, Final residual = 0, No Iterations 0
smoothSolver:  Solving for Uy, Initial residual = 0, Final residual = 0, No Iterations 0
smoothSolver:  Solving for Uz, Initial residual = 0.000524033, Final residual = 9.94479e-08, No Iterations 1
ExecutionTime = 0.16 s  ClockTime = 0 s

Time = 11.55

smoothSolver:  Solving for Ux, Initial residual = 0, Final residual = 0, No Iterations 0
smoothSolver:  Solving for Uy, Initial residual = 0, Final residual = 0, No Iterations 0
smoothSolver:  Solving for Uz, Initial residual = 0.000520998, Final residual = 9.89295e-08, No Iterations 1
ExecutionTime = 0.16 s  ClockTime = 0 s

Time = 11.6

smoothSolver:  Solving for Ux, Initial residual = 0, Final residual = 0, No Iterations 0
[...]
smoothSolver:  Solving for Uz, Initial residual = 1.69791e-05, Final residual = 3.56907e-09, No Iterations 1
ExecutionTime = 1.27 s  ClockTime = 1 s

Time = 97.15

smoothSolver:  Solving for Ux, Initial residual = 0, Final residual = 0, No Iterations 0
smoothSolver:  Solving for Uy, Initial residual = 0, Final residual = 0, No Iterations 0
smoothSolver:  Solving for Uz, Initial residual = 1.69574e-05, Final residual = 3.56454e-09, No Iterations 1
ExecutionTime = 1.27 s  ClockTime = 1 s

Time = 97.2

smoothSolver:  Solving for Ux, Initial residual = 0, Final residual = 0, No Iterations 0
smoothSolver:  Solving for Uy, Initial residual = 0, Final residual = 0, No Iterations 0
smoothSolver:  Solving for Uz, Initial residual = 1.69358e-05, Final residual = 3.56002e-09, No Iterations 1
ExecutionTime = 1.27 s  ClockTime = 1 s

Time = 97.25

smoothSolver:  Solving for Ux, Initial residual = 0, Final residual = 0, No Iterations 0
smoothSolver:  Solving for Uy, Initial residual = 0, Final residual = 0, No Iterations 0
smoothSolver:  Solving for Uz, Initial residual = 1.69142e-05, Final residual = 3.5555e-09, No Iterations 1
ExecutionTime = 1.27 s  ClockTime = 1 s

Time = 97.3

smoothSolver:  Solving for Ux, Initial residual = 0, Final residual = 0, No Iterations 0
smoothSolver:  Solving for Uy, Initial residual = 0, Final residual = 0, No Iterations 0
smoothSolver:  Solving for Uz, Initial residual = 1.68927e-05, Final residual = 3.55099e-09, No Iterations 1
ExecutionTime = 1.27 s  ClockTime = 1 s

Time = 97.35

smoothSolver:  Solving for Ux, Initial residual = 0, Final residual = 0, No Iterations 0
smoothSolver:  Solving for Uy, Initial residual = 0, Final residual = 0, No Iterations 0
smoothSolver:  Solving for Uz, Initial residual = 1.68712e-05, Final residual = 3.54649e-09, No Iterations 1
ExecutionTime = 1.27 s  ClockTime = 1 s

Time = 97.4

smoothSolver:  Solving for Ux, Initial residual = 0, Final residual = 0, No Iterations 0
smoothSolver:  Solving for Uy, Initial residual = 0, Final residual = 0, No Iterations 0
smoothSolver:  Solving for Uz, Initial residual = 1.68497e-05, Final residual = 3.54199e-09, No Iterations 1
ExecutionTime = 1.27 s  ClockTime = 1 s

Time = 97.45

smoothSolver:  Solving for Ux, Initial residual = 0, Final residual = 0, No Iterations 0
smoothSolver:  Solving for Uy, Initial residual = 0, Final residual = 0, No Iterations 0
smoothSolver:  Solving for Uz, Initial residual = 1.68283e-05, Final residual = 3.5375e-09, No Iterations 1
ExecutionTime = 1.27 s  ClockTime = 1 s

Time = 97.5

smoothSolver:  Solving for Ux, Initial residual = 0, Final residual = 0, No Iterations 0
smoothSolver:  Solving for Uy, Initial residual = 0, Final residual = 0, No Iterations 0
smoothSolver:  Solving for Uz, Initial residual = 1.68068e-05, Final residual = 3.53301e-09, No Iterations 1
ExecutionTime = 1.27 s  ClockTime = 1 s

Time = 97.55

smoothSolver:  Solving for Ux, Initial residual = 0, Final residual = 0, No Iterations 0
smoothSolver:  Solving for Uy, Initial residual = 0, Final residual = 0, No Iterations 0
smoothSolver:  Solving for Uz, Initial residual = 1.67854e-05, Final residual = 3.52853e-09, No Iterations 1
ExecutionTime = 1.27 s  ClockTime = 1 s

Time = 97.6

smoothSolver:  Solving for Ux, Initial residual = 0, Final residual = 0, No Iterations 0
smoothSolver:  Solving for Uy, Initial residual = 0, Final residual = 0, No Iterations 0
smoothSolver:  Solving for Uz, Initial residual = 1.67641e-05, Final residual = 3.52406e-09, No Iterations 1
ExecutionTime = 1.27 s  ClockTime = 1 s

Time = 97.65

smoothSolver:  Solving for Ux, Initial residual = 0, Final residual = 0, No Iterations 0
smoothSolver:  Solving for Uy, Initial residual = 0, Final residual = 0, No Iterations 0
smoothSolver:  Solving for Uz, Initial residual = 1.67428e-05, Final residual = 3.51959e-09, No Iterations 1
ExecutionTime = 1.27 s  ClockTime = 1 s

Time = 97.7

smoothSolver:  Solving for Ux, Initial residual = 0, Final residual = 0, No Iterations 0
smoothSolver:  Solving for Uy, Initial residual = 0, Final residual = 0, No Iterations 0
smoothSolver:  Solving for Uz, Initial residual = 1.67215e-05, Final residual = 3.51514e-09, No Iterations 1
ExecutionTime = 1.27 s  ClockTime = 1 s

Time = 97.75

smoothSolver:  Solving for Ux, Initial residual = 0, Final residual = 0, No Iterations 0
smoothSolver:  Solving for Uy, Initial residual = 0, Final residual = 0, No Iterations 0
smoothSolver:  Solving for Uz, Initial residual = 1.67002e-05, Final residual = 3.51068e-09, No Iterations 1
ExecutionTime = 1.27 s  ClockTime = 1 s

Time = 97.8

smoothSolver:  Solving for Ux, Initial residual = 0, Final residual = 0, No Iterations 0
smoothSolver:  Solving for Uy, Initial residual = 0, Final residual = 0, No Iterations 0
smoothSolver:  Solving for Uz, Initial residual = 1.6679e-05, Final residual = 3.50623e-09, No Iterations 1
ExecutionTime = 1.27 s  ClockTime = 1 s

Time = 97.85

smoothSolver:  Solving for Ux, Initial residual = 0, Final residual = 0, No Iterations 0
smoothSolver:  Solving for Uy, Initial residual = 0, Final residual = 0, No Iterations 0
smoothSolver:  Solving for Uz, Initial residual = 1.66578e-05, Final residual = 3.50179e-09, No Iterations 1
ExecutionTime = 1.27 s  ClockTime = 1 s

Time = 97.9

smoothSolver:  Solving for Ux, Initial residual = 0, Final residual = 0, No Iterations 0
smoothSolver:  Solving for Uy, Initial residual = 0, Final residual = 0, No Iterations 0
smoothSolver:  Solving for Uz, Initial residual = 1.66366e-05, Final residual = 3.49736e-09, No Iterations 1
ExecutionTime = 1.28 s  ClockTime = 1 s

Time = 97.95

smoothSolver:  Solving for Ux, Initial residual = 0, Final residual = 0, No Iterations 0
smoothSolver:  Solving for Uy, Initial residual = 0, Final residual = 0, No Iterations 0
smoothSolver:  Solving for Uz, Initial residual = 1.66154e-05, Final residual = 3.49293e-09, No Iterations 1
ExecutionTime = 1.28 s  ClockTime = 1 s

Time = 98

smoothSolver:  Solving for Ux, Initial residual = 0, Final residual = 0, No Iterations 0
smoothSolver:  Solving for Uy, Initial residual = 0, Final residual = 0, No Iterations 0
smoothSolver:  Solving for Uz, Initial residual = 1.65943e-05, Final residual = 3.48851e-09, No Iterations 1
ExecutionTime = 1.28 s  ClockTime = 1 s

Time = 98.05

smoothSolver:  Solving for Ux, Initial residual = 0, Final residual = 0, No Iterations 0
smoothSolver:  Solving for Uy, Initial residual = 0, Final residual = 0, No Iterations 0
smoothSolver:  Solving for Uz, Initial residual = 1.65732e-05, Final residual = 3.48409e-09, No Iterations 1
ExecutionTime = 1.28 s  ClockTime = 1 s

Time = 98.1

smoothSolver:  Solving for Ux, Initial residual = 0, Final residual = 0, No Iterations 0
smoothSolver:  Solving for Uy, Initial residual = 0, Final residual = 0, No Iterations 0
smoothSolver:  Solving for Uz, Initial residual = 1.65522e-05, Final residual = 3.47968e-09, No Iterations 1
ExecutionTime = 1.28 s  ClockTime = 1 s

Time = 98.15

smoothSolver:  Solving for Ux, Initial residual = 0, Final residual = 0, No Iterations 0
smoothSolver:  Solving for Uy, Initial residual = 0, Final residual = 0, No Iterations 0
smoothSolver:  Solving for Uz, Initial residual = 1.65311e-05, Final residual = 3.47528e-09, No Iterations 1
ExecutionTime = 1.28 s  ClockTime = 1 s

Time = 98.2

smoothSolver:  Solving for Ux, Initial residual = 0, Final residual = 0, No Iterations 0
smoothSolver:  Solving for Uy, Initial residual = 0, Final residual = 0, No Iterations 0
smoothSolver:  Solving for Uz, Initial residual = 1.65101e-05, Final residual = 3.47088e-09, No Iterations 1
ExecutionTime = 1.28 s  ClockTime = 1 s

Time = 98.25

smoothSolver:  Solving for Ux, Initial residual = 0, Final residual = 0, No Iterations 0
smoothSolver:  Solving for Uy, Initial residual = 0, Final residual = 0, No Iterations 0
smoothSolver:  Solving for Uz, Initial residual = 1.64892e-05, Final residual = 3.46649e-09, No Iterations 1
ExecutionTime = 1.28 s  ClockTime = 1 s

Time = 98.3

smoothSolver:  Solving for Ux, Initial residual = 0, Final residual = 0, No Iterations 0
smoothSolver:  Solving for Uy, Initial residual = 0, Final residual = 0, No Iterations 0
smoothSolver:  Solving for Uz, Initial residual = 1.64682e-05, Final residual = 3.46211e-09, No Iterations 1
ExecutionTime = 1.28 s  ClockTime = 1 s

Time = 98.35

smoothSolver:  Solving for Ux, Initial residual = 0, Final residual = 0, No Iterations 0
smoothSolver:  Solving for Uy, Initial residual = 0, Final residual = 0, No Iterations 0
smoothSolver:  Solving for Uz, Initial residual = 1.64473e-05, Final residual = 3.45773e-09, No Iterations 1
ExecutionTime = 1.28 s  ClockTime = 1 s

Time = 98.4

smoothSolver:  Solving for Ux, Initial residual = 0, Final residual = 0, No Iterations 0
smoothSolver:  Solving for Uy, Initial residual = 0, Final residual = 0, No Iterations 0
smoothSolver:  Solving for Uz, Initial residual = 1.64265e-05, Final residual = 3.45335e-09, No Iterations 1
ExecutionTime = 1.28 s  ClockTime = 1 s

Time = 98.45

smoothSolver:  Solving for Ux, Initial residual = 0, Final residual = 0, No Iterations 0
smoothSolver:  Solving for Uy, Initial residual = 0, Final residual = 0, No Iterations 0
smoothSolver:  Solving for Uz, Initial residual = 1.64056e-05, Final residual = 3.44899e-09, No Iterations 1
ExecutionTime = 1.28 s  ClockTime = 1 s

Time = 98.5

smoothSolver:  Solving for Ux, Initial residual = 0, Final residual = 0, No Iterations 0
smoothSolver:  Solving for Uy, Initial residual = 0, Final residual = 0, No Iterations 0
smoothSolver:  Solving for Uz, Initial residual = 1.63848e-05, Final residual = 3.44463e-09, No Iterations 1
ExecutionTime = 1.28 s  ClockTime = 1 s

Time = 98.55

smoothSolver:  Solving for Ux, Initial residual = 0, Final residual = 0, No Iterations 0
smoothSolver:  Solving for Uy, Initial residual = 0, Final residual = 0, No Iterations 0
smoothSolver:  Solving for Uz, Initial residual = 1.6364e-05, Final residual = 3.44027e-09, No Iterations 1
ExecutionTime = 1.28 s  ClockTime = 1 s

Time = 98.6

smoothSolver:  Solving for Ux, Initial residual = 0, Final residual = 0, No Iterations 0
smoothSolver:  Solving for Uy, Initial residual = 0, Final residual = 0, No Iterations 0
smoothSolver:  Solving for Uz, Initial residual = 1.63432e-05, Final residual = 3.43593e-09, No Iterations 1
ExecutionTime = 1.28 s  ClockTime = 1 s

Time = 98.65

smoothSolver:  Solving for Ux, Initial residual = 0, Final residual = 0, No Iterations 0
smoothSolver:  Solving for Uy, Initial residual = 0, Final residual = 0, No Iterations 0
smoothSolver:  Solving for Uz, Initial residual = 1.63225e-05, Final residual = 3.43158e-09, No Iterations 1
ExecutionTime = 1.28 s  ClockTime = 1 s

Time = 98.7

smoothSolver:  Solving for Ux, Initial residual = 0, Final residual = 0, No Iterations 0
smoothSolver:  Solving for Uy, Initial residual = 0, Final residual = 0, No Iterations 0
smoothSolver:  Solving for Uz, Initial residual = 1.63018e-05, Final residual = 3.42725e-09, No Iterations 1
ExecutionTime = 1.29 s  ClockTime = 1 s

Time = 98.75

smoothSolver:  Solving for Ux, Initial residual = 0, Final residual = 0, No Iterations 0
smoothSolver:  Solving for Uy, Initial residual = 0, Final residual = 0, No Iterations 0
smoothSolver:  Solving for Uz, Initial residual = 1.62811e-05, Final residual = 3.42292e-09, No Iterations 1
ExecutionTime = 1.29 s  ClockTime = 1 s

Time = 98.8

smoothSolver:  Solving for Ux, Initial residual = 0, Final residual = 0, No Iterations 0
smoothSolver:  Solving for Uy, Initial residual = 0, Final residual = 0, No Iterations 0
smoothSolver:  Solving for Uz, Initial residual = 1.62605e-05, Final residual = 3.4186e-09, No Iterations 1
ExecutionTime = 1.29 s  ClockTime = 1 s

Time = 98.85

smoothSolver:  Solving for Ux, Initial residual = 0, Final residual = 0, No Iterations 0
smoothSolver:  Solving for Uy, Initial residual = 0, Final residual = 0, No Iterations 0
smoothSolver:  Solving for Uz, Initial residual = 1.62399e-05, Final residual = 3.41428e-09, No Iterations 1
ExecutionTime = 1.29 s  ClockTime = 1 s

Time = 98.9

smoothSolver:  Solving for Ux, Initial residual = 0, Final residual = 0, No Iterations 0
smoothSolver:  Solving for Uy, Initial residual = 0, Final residual = 0, No Iterations 0
smoothSolver:  Solving for Uz, Initial residual = 1.62193e-05, Final residual = 3.40997e-09, No Iterations 1
ExecutionTime = 1.29 s  ClockTime = 1 s

Time = 98.95

smoothSolver:  Solving for Ux, Initial residual = 0, Final residual = 0, No Iterations 0
smoothSolver:  Solving for Uy, Initial residual = 0, Final residual = 0, No Iterations 0
smoothSolver:  Solving for Uz, Initial residual = 1.61987e-05, Final residual = 3.40566e-09, No Iterations 1
ExecutionTime = 1.29 s  ClockTime = 1 s

Time = 99

smoothSolver:  Solving for Ux, Initial residual = 0, Final residual = 0, No Iterations 0
smoothSolver:  Solving for Uy, Initial residual = 0, Final residual = 0, No Iterations 0
smoothSolver:  Solving for Uz, Initial residual = 1.61782e-05, Final residual = 3.40136e-09, No Iterations 1
ExecutionTime = 1.29 s  ClockTime = 1 s

Time = 99.05

smoothSolver:  Solving for Ux, Initial residual = 0, Final residual = 0, No Iterations 0
smoothSolver:  Solving for Uy, Initial residual = 0, Final residual = 0, No Iterations 0
smoothSolver:  Solving for Uz, Initial residual = 1.61577e-05, Final residual = 3.39707e-09, No Iterations 1
ExecutionTime = 1.29 s  ClockTime = 1 s

Time = 99.1

smoothSolver:  Solving for Ux, Initial residual = 0, Final residual = 0, No Iterations 0
smoothSolver:  Solving for Uy, Initial residual = 0, Final residual = 0, No Iterations 0
smoothSolver:  Solving for Uz, Initial residual = 1.61372e-05, Final residual = 3.39278e-09, No Iterations 1
ExecutionTime = 1.29 s  ClockTime = 1 s

Time = 99.15

smoothSolver:  Solving for Ux, Initial residual = 0, Final residual = 0, No Iterations 0
smoothSolver:  Solving for Uy, Initial residual = 0, Final residual = 0, No Iterations 0
smoothSolver:  Solving for Uz, Initial residual = 1.61168e-05, Final residual = 3.3885e-09, No Iterations 1
ExecutionTime = 1.29 s  ClockTime = 1 s

Time = 99.2

smoothSolver:  Solving for Ux, Initial residual = 0, Final residual = 0, No Iterations 0
smoothSolver:  Solving for Uy, Initial residual = 0, Final residual = 0, No Iterations 0
smoothSolver:  Solving for Uz, Initial residual = 1.60964e-05, Final residual = 3.38423e-09, No Iterations 1
ExecutionTime = 1.29 s  ClockTime = 1 s

Time = 99.25

smoothSolver:  Solving for Ux, Initial residual = 0, Final residual = 0, No Iterations 0
smoothSolver:  Solving for Uy, Initial residual = 0, Final residual = 0, No Iterations 0
smoothSolver:  Solving for Uz, Initial residual = 1.6076e-05, Final residual = 3.37996e-09, No Iterations 1
ExecutionTime = 1.29 s  ClockTime = 1 s

Time = 99.3

smoothSolver:  Solving for Ux, Initial residual = 0, Final residual = 0, No Iterations 0
smoothSolver:  Solving for Uy, Initial residual = 0, Final residual = 0, No Iterations 0
smoothSolver:  Solving for Uz, Initial residual = 1.60557e-05, Final residual = 3.37569e-09, No Iterations 1
ExecutionTime = 1.29 s  ClockTime = 1 s

Time = 99.35

smoothSolver:  Solving for Ux, Initial residual = 0, Final residual = 0, No Iterations 0
smoothSolver:  Solving for Uy, Initial residual = 0, Final residual = 0, No Iterations 0
smoothSolver:  Solving for Uz, Initial residual = 1.60353e-05, Final residual = 3.37144e-09, No Iterations 1
ExecutionTime = 1.29 s  ClockTime = 1 s

Time = 99.4

smoothSolver:  Solving for Ux, Initial residual = 0, Final residual = 0, No Iterations 0
smoothSolver:  Solving for Uy, Initial residual = 0, Final residual = 0, No Iterations 0
smoothSolver:  Solving for Uz, Initial residual = 1.6015e-05, Final residual = 3.36719e-09, No Iterations 1
ExecutionTime = 1.29 s  ClockTime = 1 s

Time = 99.45

smoothSolver:  Solving for Ux, Initial residual = 0, Final residual = 0, No Iterations 0
smoothSolver:  Solving for Uy, Initial residual = 0, Final residual = 0, No Iterations 0
smoothSolver:  Solving for Uz, Initial residual = 1.59948e-05, Final residual = 3.36294e-09, No Iterations 1
ExecutionTime = 1.29 s  ClockTime = 1 s

Time = 99.5

smoothSolver:  Solving for Ux, Initial residual = 0, Final residual = 0, No Iterations 0
smoothSolver:  Solving for Uy, Initial residual = 0, Final residual = 0, No Iterations 0
smoothSolver:  Solving for Uz, Initial residual = 1.59745e-05, Final residual = 3.3587e-09, No Iterations 1
ExecutionTime = 1.29 s  ClockTime = 1 s

Time = 99.55

smoothSolver:  Solving for Ux, Initial residual = 0, Final residual = 0, No Iterations 0
smoothSolver:  Solving for Uy, Initial residual = 0, Final residual = 0, No Iterations 0
smoothSolver:  Solving for Uz, Initial residual = 1.59543e-05, Final residual = 3.35447e-09, No Iterations 1
ExecutionTime = 1.29 s  ClockTime = 1 s

Time = 99.6

smoothSolver:  Solving for Ux, Initial residual = 0, Final residual = 0, No Iterations 0
smoothSolver:  Solving for Uy, Initial residual = 0, Final residual = 0, No Iterations 0
smoothSolver:  Solving for Uz, Initial residual = 1.59342e-05, Final residual = 3.35024e-09, No Iterations 1
ExecutionTime = 1.29 s  ClockTime = 1 s

Time = 99.65

smoothSolver:  Solving for Ux, Initial residual = 0, Final residual = 0, No Iterations 0
smoothSolver:  Solving for Uy, Initial residual = 0, Final residual = 0, No Iterations 0
smoothSolver:  Solving for Uz, Initial residual = 1.5914e-05, Final residual = 3.34602e-09, No Iterations 1
ExecutionTime = 1.29 s  ClockTime = 1 s

Time = 99.7

smoothSolver:  Solving for Ux, Initial residual = 0, Final residual = 0, No Iterations 0
smoothSolver:  Solving for Uy, Initial residual = 0, Final residual = 0, No Iterations 0
smoothSolver:  Solving for Uz, Initial residual = 1.58939e-05, Final residual = 3.3418e-09, No Iterations 1
ExecutionTime = 1.29 s  ClockTime = 1 s

Time = 99.75

smoothSolver:  Solving for Ux, Initial residual = 0, Final residual = 0, No Iterations 0
smoothSolver:  Solving for Uy, Initial residual = 0, Final residual = 0, No Iterations 0
smoothSolver:  Solving for Uz, Initial residual = 1.58738e-05, Final residual = 3.33759e-09, No Iterations 1
ExecutionTime = 1.29 s  ClockTime = 1 s

Time = 99.8

smoothSolver:  Solving for Ux, Initial residual = 0, Final residual = 0, No Iterations 0
smoothSolver:  Solving for Uy, Initial residual = 0, Final residual = 0, No Iterations 0
smoothSolver:  Solving for Uz, Initial residual = 1.58537e-05, Final residual = 3.33339e-09, No Iterations 1
ExecutionTime = 1.29 s  ClockTime = 1 s

Time = 99.85

smoothSolver:  Solving for Ux, Initial residual = 0, Final residual = 0, No Iterations 0
smoothSolver:  Solving for Uy, Initial residual = 0, Final residual = 0, No Iterations 0
smoothSolver:  Solving for Uz, Initial residual = 1.58337e-05, Final residual = 3.32919e-09, No Iterations 1
ExecutionTime = 1.3 s  ClockTime = 1 s

Time = 99.9

smoothSolver:  Solving for Ux, Initial residual = 0, Final residual = 0, No Iterations 0
smoothSolver:  Solving for Uy, Initial residual = 0, Final residual = 0, No Iterations 0
smoothSolver:  Solving for Uz, Initial residual = 1.58137e-05, Final residual = 3.325e-09, No Iterations 1
ExecutionTime = 1.3 s  ClockTime = 1 s

Time = 99.95

smoothSolver:  Solving for Ux, Initial residual = 0, Final residual = 0, No Iterations 0
smoothSolver:  Solving for Uy, Initial residual = 0, Final residual = 0, No Iterations 0
smoothSolver:  Solving for Uz, Initial residual = 1.57937e-05, Final residual = 3.32082e-09, No Iterations 1
ExecutionTime = 1.3 s  ClockTime = 1 s

Time = 100

smoothSolver:  Solving for Ux, Initial residual = 0, Final residual = 0, No Iterations 0
smoothSolver:  Solving for Uy, Initial residual = 0, Final residual = 0, No Iterations 0
smoothSolver:  Solving for Uz, Initial residual = 1.57737e-05, Final residual = 3.31664e-09, No Iterations 1
ExecutionTime = 1.31 s  ClockTime = 1 s

End

