/*---------------------------------------------------------------------------*\
| =========                 |                                                 |
| \\      /  F ield         | OpenFOAM: The Open Source CFD Toolbox           |
|  \\    /   O peration     | Version:  v2106                                 |
|   \\  /    A nd           | Website:  www.openfoam.com                      |
|    \\/     M anipulation  |                                                 |
\*---------------------------------------------------------------------------*/
Build  : _c15bfde3cb-20210624 OPENFOAM=2106
Arch   : "LSB;label=32;scalar=64"
Exec   : laplacianFoamDDLmodes
Date   : Sep 01 2022
Time   : 21:40:48
Host   : Sh-Ruan-matebook
PID    : 2134
I/O    : uncollated
Case   : /home/shenhui_ruan/gitFolder/RshOpenFOAMSourceCode/laplacianFoamROM_DDLocalModes/svdtest
nProcs : 1
trapFpe: Floating point exception trapping enabled (FOAM_SIGFPE).
fileModificationChecking : Monitoring run-time modified files using timeStampMaster (fileModificationSkew 5, maxFileModificationPolls 20)
allowSystemOperations : Allowing user-supplied system call operations

// * * * * * * * * * * * * * * * * * * * * * * * * * * * * * * * * * * * * * //
Create time

Create mesh for time = 0


SIMPLE: no convergence criteria found. Calculations will run for 50 steps.

Reading field T

Reading diffusivity DT

No finite volume options present

Calculating temperature distribution

snapshots extract
time Interval of snapshots is: 0.1

Time = 0.05

DICPCG:  Solving for T, Initial residual = 1, Final residual = 2.1055043e-07, No Iterations 10
DICPCG:  Solving for T, Initial residual = 8.364754e-08, Final residual = 8.364754e-08, No Iterations 0
DICPCG:  Solving for T, Initial residual = 8.364754e-08, Final residual = 8.364754e-08, No Iterations 0
ExecutionTime = 0.03 s  ClockTime = 0 s

Time = 0.1

DICPCG:  Solving for T, Initial residual = 0.14257842, Final residual = 8.0571392e-07, No Iterations 8
DICPCG:  Solving for T, Initial residual = 6.6608447e-07, Final residual = 6.6608447e-07, No Iterations 0
DICPCG:  Solving for T, Initial residual = 6.6608447e-07, Final residual = 6.6608447e-07, No Iterations 0
ExecutionTime = 0.03 s  ClockTime = 0 s

runTime.value(): 0.1
snapshotsTime: 0.1
Time = 0.15

DICPCG:  Solving for T, Initial residual = 0.064906223, Final residual = 3.2994492e-07, No Iterations 8
DICPCG:  Solving for T, Initial residual = 2.9899038e-07, Final residual = 2.9899038e-07, No Iterations 0
DICPCG:  Solving for T, Initial residual = 2.9899038e-07, Final residual = 2.9899038e-07, No Iterations 0
ExecutionTime = 0.03 s  ClockTime = 0 s

Time = 0.2

DICPCG:  Solving for T, Initial residual = 0.04158989, Final residual = 8.8109675e-07, No Iterations 7
DICPCG:  Solving for T, Initial residual = 8.265146e-07, Final residual = 8.265146e-07, No Iterations 0
DICPCG:  Solving for T, Initial residual = 8.265146e-07, Final residual = 8.265146e-07, No Iterations 0
ExecutionTime = 0.04 s  ClockTime = 0 s

runTime.value(): 0.2
snapshotsTime: 0.2
Time = 0.25

DICPCG:  Solving for T, Initial residual = 0.031221495, Final residual = 5.7807732e-07, No Iterations 7
DICPCG:  Solving for T, Initial residual = 5.50603e-07, Final residual = 5.50603e-07, No Iterations 0
DICPCG:  Solving for T, Initial residual = 5.50603e-07, Final residual = 5.50603e-07, No Iterations 0
ExecutionTime = 0.04 s  ClockTime = 0 s

Time = 0.3

DICPCG:  Solving for T, Initial residual = 0.025326486, Final residual = 4.2565968e-07, No Iterations 7
DICPCG:  Solving for T, Initial residual = 4.0967969e-07, Final residual = 4.0967969e-07, No Iterations 0
DICPCG:  Solving for T, Initial residual = 4.0967969e-07, Final residual = 4.0967969e-07, No Iterations 0
ExecutionTime = 0.04 s  ClockTime = 0 s

Time = 0.35

DICPCG:  Solving for T, Initial residual = 0.021507086, Final residual = 3.32964e-07, No Iterations 7
DICPCG:  Solving for T, Initial residual = 3.2240107e-07, Final residual = 3.2240107e-07, No Iterations 0
DICPCG:  Solving for T, Initial residual = 3.2240107e-07, Final residual = 3.2240107e-07, No Iterations 0
ExecutionTime = 0.04 s  ClockTime = 0 s

runTime.value(): 0.35
snapshotsTime: 0.3
Time = 0.4

DICPCG:  Solving for T, Initial residual = 0.018786605, Final residual = 2.7282261e-07, No Iterations 7
DICPCG:  Solving for T, Initial residual = 2.6556432e-07, Final residual = 2.6556432e-07, No Iterations 0
DICPCG:  Solving for T, Initial residual = 2.6556432e-07, Final residual = 2.6556432e-07, No Iterations 0
ExecutionTime = 0.04 s  ClockTime = 0 s

Time = 0.45

DICPCG:  Solving for T, Initial residual = 0.016747961, Final residual = 9.9603484e-07, No Iterations 6
DICPCG:  Solving for T, Initial residual = 9.7227341e-07, Final residual = 9.7227341e-07, No Iterations 0
DICPCG:  Solving for T, Initial residual = 9.7227341e-07, Final residual = 9.7227341e-07, No Iterations 0
ExecutionTime = 0.05 s  ClockTime = 0 s

runTime.value(): 0.45
snapshotsTime: 0.4
Time = 0.5

DICPCG:  Solving for T, Initial residual = 0.015152106, Final residual = 8.3277504e-07, No Iterations 6
DICPCG:  Solving for T, Initial residual = 8.1541671e-07, Final residual = 8.1541671e-07, No Iterations 0
DICPCG:  Solving for T, Initial residual = 8.1541671e-07, Final residual = 8.1541671e-07, No Iterations 0
ExecutionTime = 0.05 s  ClockTime = 0 s

Time = 0.55

DICPCG:  Solving for T, Initial residual = 0.013860557, Final residual = 7.0955351e-07, No Iterations 6
DICPCG:  Solving for T, Initial residual = 6.9633128e-07, Final residual = 6.9633128e-07, No Iterations 0
DICPCG:  Solving for T, Initial residual = 6.9633128e-07, Final residual = 6.9633128e-07, No Iterations 0
ExecutionTime = 0.05 s  ClockTime = 0 s

runTime.value(): 0.55
snapshotsTime: 0.5
Time = 0.6

DICPCG:  Solving for T, Initial residual = 0.012793018, Final residual = 6.1508254e-07, No Iterations 6
DICPCG:  Solving for T, Initial residual = 6.0455652e-07, Final residual = 6.0455652e-07, No Iterations 0
DICPCG:  Solving for T, Initial residual = 6.0455652e-07, Final residual = 6.0455652e-07, No Iterations 0
ExecutionTime = 0.05 s  ClockTime = 0 s

runTime.value(): 0.6
snapshotsTime: 0.6
Time = 0.65

DICPCG:  Solving for T, Initial residual = 0.011894226, Final residual = 5.4195086e-07, No Iterations 6
DICPCG:  Solving for T, Initial residual = 5.3358975e-07, Final residual = 5.3358975e-07, No Iterations 0
DICPCG:  Solving for T, Initial residual = 5.3358975e-07, Final residual = 5.3358975e-07, No Iterations 0
ExecutionTime = 0.05 s  ClockTime = 0 s

Time = 0.7

DICPCG:  Solving for T, Initial residual = 0.011123667, Final residual = 4.8460229e-07, No Iterations 6
DICPCG:  Solving for T, Initial residual = 4.7791736e-07, Final residual = 4.7791736e-07, No Iterations 0
DICPCG:  Solving for T, Initial residual = 4.7791736e-07, Final residual = 4.7791736e-07, No Iterations 0
ExecutionTime = 0.05 s  ClockTime = 0 s

runTime.value(): 0.7
snapshotsTime: 0.7
Time = 0.75

DICPCG:  Solving for T, Initial residual = 0.010453095, Final residual = 4.3869088e-07, No Iterations 6
DICPCG:  Solving for T, Initial residual = 4.3287025e-07, Final residual = 4.3287025e-07, No Iterations 0
DICPCG:  Solving for T, Initial residual = 4.3287025e-07, Final residual = 4.3287025e-07, No Iterations 0
ExecutionTime = 0.05 s  ClockTime = 0 s

Time = 0.8

DICPCG:  Solving for T, Initial residual = 0.0098598383, Final residual = 4.0080661e-07, No Iterations 6
DICPCG:  Solving for T, Initial residual = 3.9591957e-07, Final residual = 3.9591957e-07, No Iterations 0
DICPCG:  Solving for T, Initial residual = 3.9591957e-07, Final residual = 3.9591957e-07, No Iterations 0
ExecutionTime = 0.06 s  ClockTime = 0 s

runTime.value(): 0.8
snapshotsTime: 0.8
Time = 0.85

DICPCG:  Solving for T, Initial residual = 0.009335427, Final residual = 3.69447e-07, No Iterations 6
DICPCG:  Solving for T, Initial residual = 3.6529052e-07, Final residual = 3.6529052e-07, No Iterations 0
DICPCG:  Solving for T, Initial residual = 3.6529052e-07, Final residual = 3.6529052e-07, No Iterations 0
ExecutionTime = 0.06 s  ClockTime = 0 s

Time = 0.9

DICPCG:  Solving for T, Initial residual = 0.0088647575, Final residual = 3.4284717e-07, No Iterations 6
DICPCG:  Solving for T, Initial residual = 3.3937311e-07, Final residual = 3.3937311e-07, No Iterations 0
DICPCG:  Solving for T, Initial residual = 3.3937311e-07, Final residual = 3.3937311e-07, No Iterations 0
ExecutionTime = 0.07 s  ClockTime = 0 s

runTime.value(): 0.9
snapshotsTime: 0.9
Time = 0.95

DICPCG:  Solving for T, Initial residual = 0.0084380043, Final residual = 3.1999444e-07, No Iterations 6
DICPCG:  Solving for T, Initial residual = 3.1678315e-07, Final residual = 3.1678315e-07, No Iterations 0
DICPCG:  Solving for T, Initial residual = 3.1678315e-07, Final residual = 3.1678315e-07, No Iterations 0
ExecutionTime = 0.07 s  ClockTime = 0 s

Time = 1

DICPCG:  Solving for T, Initial residual = 0.0080457536, Final residual = 3.0019737e-07, No Iterations 6
DICPCG:  Solving for T, Initial residual = 2.973844e-07, Final residual = 2.973844e-07, No Iterations 0
DICPCG:  Solving for T, Initial residual = 2.973844e-07, Final residual = 2.973844e-07, No Iterations 0
ExecutionTime = 0.07 s  ClockTime = 0 s

runTime.value(): 1
snapshotsTime: 1
Time = 1.05

DICPCG:  Solving for T, Initial residual = 0.0076880761, Final residual = 2.8293698e-07, No Iterations 6
DICPCG:  Solving for T, Initial residual = 2.8045548e-07, Final residual = 2.8045548e-07, No Iterations 0
DICPCG:  Solving for T, Initial residual = 2.8045548e-07, Final residual = 2.8045548e-07, No Iterations 0
ExecutionTime = 0.07 s  ClockTime = 0 s

Time = 1.1

DICPCG:  Solving for T, Initial residual = 0.007362224, Final residual = 2.6774475e-07, No Iterations 6
DICPCG:  Solving for T, Initial residual = 2.655415e-07, Final residual = 2.655415e-07, No Iterations 0
DICPCG:  Solving for T, Initial residual = 2.655415e-07, Final residual = 2.655415e-07, No Iterations 0
ExecutionTime = 0.07 s  ClockTime = 0 s

runTime.value(): 1.1
snapshotsTime: 1.1
Time = 1.15

DICPCG:  Solving for T, Initial residual = 0.007060597, Final residual = 2.5425155e-07, No Iterations 6
DICPCG:  Solving for T, Initial residual = 2.5232914e-07, Final residual = 2.5232914e-07, No Iterations 0
DICPCG:  Solving for T, Initial residual = 2.5232914e-07, Final residual = 2.5232914e-07, No Iterations 0
ExecutionTime = 0.08 s  ClockTime = 0 s

Time = 1.2

DICPCG:  Solving for T, Initial residual = 0.0067791627, Final residual = 2.4207339e-07, No Iterations 6
DICPCG:  Solving for T, Initial residual = 2.402626e-07, Final residual = 2.402626e-07, No Iterations 0
DICPCG:  Solving for T, Initial residual = 2.402626e-07, Final residual = 2.402626e-07, No Iterations 0
ExecutionTime = 0.08 s  ClockTime = 0 s

runTime.value(): 1.2
snapshotsTime: 1.2
Time = 1.25

DICPCG:  Solving for T, Initial residual = 0.0065146886, Final residual = 2.3095408e-07, No Iterations 6
DICPCG:  Solving for T, Initial residual = 2.2930849e-07, Final residual = 2.2930849e-07, No Iterations 0
DICPCG:  Solving for T, Initial residual = 2.2930849e-07, Final residual = 2.2930849e-07, No Iterations 0
ExecutionTime = 0.08 s  ClockTime = 0 s

Time = 1.3

DICPCG:  Solving for T, Initial residual = 0.006267511, Final residual = 2.2089077e-07, No Iterations 6
DICPCG:  Solving for T, Initial residual = 2.1940102e-07, Final residual = 2.1940102e-07, No Iterations 0
DICPCG:  Solving for T, Initial residual = 2.1940102e-07, Final residual = 2.1940102e-07, No Iterations 0
ExecutionTime = 0.08 s  ClockTime = 0 s

runTime.value(): 1.3
snapshotsTime: 1.3
Time = 1.35

DICPCG:  Solving for T, Initial residual = 0.0060360463, Final residual = 2.1167774e-07, No Iterations 6
DICPCG:  Solving for T, Initial residual = 2.1032432e-07, Final residual = 2.1032432e-07, No Iterations 0
DICPCG:  Solving for T, Initial residual = 2.1032432e-07, Final residual = 2.1032432e-07, No Iterations 0
ExecutionTime = 0.09 s  ClockTime = 0 s

Time = 1.4

DICPCG:  Solving for T, Initial residual = 0.0058186085, Final residual = 2.0321457e-07, No Iterations 6
DICPCG:  Solving for T, Initial residual = 2.0198099e-07, Final residual = 2.0198099e-07, No Iterations 0
DICPCG:  Solving for T, Initial residual = 2.0198099e-07, Final residual = 2.0198099e-07, No Iterations 0
ExecutionTime = 0.09 s  ClockTime = 0 s

runTime.value(): 1.4
snapshotsTime: 1.4
Time = 1.45

DICPCG:  Solving for T, Initial residual = 0.0056136897, Final residual = 1.9539551e-07, No Iterations 6
DICPCG:  Solving for T, Initial residual = 1.9427711e-07, Final residual = 1.9427711e-07, No Iterations 0
DICPCG:  Solving for T, Initial residual = 1.9427711e-07, Final residual = 1.9427711e-07, No Iterations 0
ExecutionTime = 0.09 s  ClockTime = 0 s

Time = 1.5

DICPCG:  Solving for T, Initial residual = 0.0054222696, Final residual = 1.8804842e-07, No Iterations 6
DICPCG:  Solving for T, Initial residual = 1.8701162e-07, Final residual = 1.8701162e-07, No Iterations 0
DICPCG:  Solving for T, Initial residual = 1.8701162e-07, Final residual = 1.8701162e-07, No Iterations 0
ExecutionTime = 0.09 s  ClockTime = 0 s

runTime.value(): 1.5
snapshotsTime: 1.5
Time = 1.55

DICPCG:  Solving for T, Initial residual = 0.0052402758, Final residual = 1.8122195e-07, No Iterations 6
DICPCG:  Solving for T, Initial residual = 1.8024334e-07, Final residual = 1.8024334e-07, No Iterations 0
DICPCG:  Solving for T, Initial residual = 1.8024334e-07, Final residual = 1.8024334e-07, No Iterations 0
ExecutionTime = 0.09 s  ClockTime = 0 s

Time = 1.6

DICPCG:  Solving for T, Initial residual = 0.0050672291, Final residual = 1.7482877e-07, No Iterations 6
DICPCG:  Solving for T, Initial residual = 1.7392762e-07, Final residual = 1.7392762e-07, No Iterations 0
DICPCG:  Solving for T, Initial residual = 1.7392762e-07, Final residual = 1.7392762e-07, No Iterations 0
ExecutionTime = 0.1 s  ClockTime = 0 s

runTime.value(): 1.6
snapshotsTime: 1.6
Time = 1.65

DICPCG:  Solving for T, Initial residual = 0.0049030919, Final residual = 1.6883977e-07, No Iterations 6
DICPCG:  Solving for T, Initial residual = 1.6800824e-07, Final residual = 1.6800824e-07, No Iterations 0
DICPCG:  Solving for T, Initial residual = 1.6800824e-07, Final residual = 1.6800824e-07, No Iterations 0
ExecutionTime = 0.1 s  ClockTime = 0 s

Time = 1.7

DICPCG:  Solving for T, Initial residual = 0.0047471152, Final residual = 1.6320865e-07, No Iterations 6
DICPCG:  Solving for T, Initial residual = 1.6243991e-07, Final residual = 1.6243991e-07, No Iterations 0
DICPCG:  Solving for T, Initial residual = 1.6243991e-07, Final residual = 1.6243991e-07, No Iterations 0
ExecutionTime = 0.1 s  ClockTime = 0 s

runTime.value(): 1.7
snapshotsTime: 1.7
Time = 1.75

DICPCG:  Solving for T, Initial residual = 0.0045986402, Final residual = 1.5793482e-07, No Iterations 6
DICPCG:  Solving for T, Initial residual = 1.5722271e-07, Final residual = 1.5722271e-07, No Iterations 0
DICPCG:  Solving for T, Initial residual = 1.5722271e-07, Final residual = 1.5722271e-07, No Iterations 0
ExecutionTime = 0.1 s  ClockTime = 0 s

Time = 1.8

DICPCG:  Solving for T, Initial residual = 0.0044577859, Final residual = 1.529714e-07, No Iterations 6
DICPCG:  Solving for T, Initial residual = 1.5231058e-07, Final residual = 1.5231058e-07, No Iterations 0
DICPCG:  Solving for T, Initial residual = 1.5231058e-07, Final residual = 1.5231058e-07, No Iterations 0
ExecutionTime = 0.1 s  ClockTime = 0 s

runTime.value(): 1.8
snapshotsTime: 1.8
Time = 1.85

DICPCG:  Solving for T, Initial residual = 0.0043263045, Final residual = 1.4826027e-07, No Iterations 6
DICPCG:  Solving for T, Initial residual = 1.4765999e-07, Final residual = 1.4765999e-07, No Iterations 0
DICPCG:  Solving for T, Initial residual = 1.4765999e-07, Final residual = 1.4765999e-07, No Iterations 0
ExecutionTime = 0.11 s  ClockTime = 0 s

Time = 1.9

DICPCG:  Solving for T, Initial residual = 0.0042000057, Final residual = 1.4376962e-07, No Iterations 6
DICPCG:  Solving for T, Initial residual = 1.4319339e-07, Final residual = 1.4319339e-07, No Iterations 0
DICPCG:  Solving for T, Initial residual = 1.4319339e-07, Final residual = 1.4319339e-07, No Iterations 0
ExecutionTime = 0.11 s  ClockTime = 0 s

runTime.value(): 1.9
snapshotsTime: 1.9
Time = 1.95

DICPCG:  Solving for T, Initial residual = 0.0040784595, Final residual = 9.9799383e-07, No Iterations 5
DICPCG:  Solving for T, Initial residual = 9.9408389e-07, Final residual = 9.9408389e-07, No Iterations 0
DICPCG:  Solving for T, Initial residual = 9.9408389e-07, Final residual = 9.9408389e-07, No Iterations 0
ExecutionTime = 0.11 s  ClockTime = 0 s

Time = 2

DICPCG:  Solving for T, Initial residual = 0.003961864, Final residual = 9.6822571e-07, No Iterations 5
DICPCG:  Solving for T, Initial residual = 9.6458079e-07, Final residual = 9.6458079e-07, No Iterations 0
DICPCG:  Solving for T, Initial residual = 9.6458079e-07, Final residual = 9.6458079e-07, No Iterations 0
ExecutionTime = 0.11 s  ClockTime = 0 s

runTime.value(): 2
snapshotsTime: 2
Time = 2.05

DICPCG:  Solving for T, Initial residual = 0.0038501757, Final residual = 9.4009145e-07, No Iterations 5
DICPCG:  Solving for T, Initial residual = 9.3668878e-07, Final residual = 9.3668878e-07, No Iterations 0
DICPCG:  Solving for T, Initial residual = 9.3668878e-07, Final residual = 9.3668878e-07, No Iterations 0
ExecutionTime = 0.12 s  ClockTime = 0 s

Time = 2.1

DICPCG:  Solving for T, Initial residual = 0.0037437425, Final residual = 9.1354791e-07, No Iterations 5
DICPCG:  Solving for T, Initial residual = 9.1036684e-07, Final residual = 9.1036684e-07, No Iterations 0
DICPCG:  Solving for T, Initial residual = 9.1036684e-07, Final residual = 9.1036684e-07, No Iterations 0
ExecutionTime = 0.12 s  ClockTime = 0 s

runTime.value(): 2.1
snapshotsTime: 2.1
Time = 2.15

DICPCG:  Solving for T, Initial residual = 0.0036447559, Final residual = 8.8835563e-07, No Iterations 5
DICPCG:  Solving for T, Initial residual = 8.8537804e-07, Final residual = 8.8537804e-07, No Iterations 0
DICPCG:  Solving for T, Initial residual = 8.8537804e-07, Final residual = 8.8537804e-07, No Iterations 0
ExecutionTime = 0.12 s  ClockTime = 0 s

Time = 2.2

DICPCG:  Solving for T, Initial residual = 0.0035497064, Final residual = 8.6452081e-07, No Iterations 5
DICPCG:  Solving for T, Initial residual = 8.6173005e-07, Final residual = 8.6173005e-07, No Iterations 0
DICPCG:  Solving for T, Initial residual = 8.6173005e-07, Final residual = 8.6173005e-07, No Iterations 0
ExecutionTime = 0.12 s  ClockTime = 0 s

Time = 2.25

DICPCG:  Solving for T, Initial residual = 0.0034583528, Final residual = 8.4175486e-07, No Iterations 5
DICPCG:  Solving for T, Initial residual = 8.3913652e-07, Final residual = 8.3913652e-07, No Iterations 0
DICPCG:  Solving for T, Initial residual = 8.3913652e-07, Final residual = 8.3913652e-07, No Iterations 0
ExecutionTime = 0.12 s  ClockTime = 0 s

runTime.value(): 2.25
snapshotsTime: 2.2
Time = 2.3

DICPCG:  Solving for T, Initial residual = 0.0033704754, Final residual = 8.2007798e-07, No Iterations 5
DICPCG:  Solving for T, Initial residual = 8.1761872e-07, Final residual = 8.1761872e-07, No Iterations 0
DICPCG:  Solving for T, Initial residual = 8.1761872e-07, Final residual = 8.1761872e-07, No Iterations 0
ExecutionTime = 0.13 s  ClockTime = 0 s

Time = 2.35

DICPCG:  Solving for T, Initial residual = 0.0032857337, Final residual = 7.9927503e-07, No Iterations 5
DICPCG:  Solving for T, Initial residual = 7.9699726e-07, Final residual = 7.9699726e-07, No Iterations 0
DICPCG:  Solving for T, Initial residual = 7.9699726e-07, Final residual = 7.9699726e-07, No Iterations 0
ExecutionTime = 0.13 s  ClockTime = 0 s

runTime.value(): 2.35
snapshotsTime: 2.3
Time = 2.4

DICPCG:  Solving for T, Initial residual = 0.0032067329, Final residual = 7.7919801e-07, No Iterations 5
DICPCG:  Solving for T, Initial residual = 7.7705565e-07, Final residual = 7.7705565e-07, No Iterations 0
DICPCG:  Solving for T, Initial residual = 7.7705565e-07, Final residual = 7.7705565e-07, No Iterations 0
ExecutionTime = 0.13 s  ClockTime = 0 s

Time = 2.45

DICPCG:  Solving for T, Initial residual = 0.0031306938, Final residual = 7.5994516e-07, No Iterations 5
DICPCG:  Solving for T, Initial residual = 7.5785854e-07, Final residual = 7.5785854e-07, No Iterations 0
DICPCG:  Solving for T, Initial residual = 7.5785854e-07, Final residual = 7.5785854e-07, No Iterations 0
ExecutionTime = 0.13 s  ClockTime = 0 s

runTime.value(): 2.45
snapshotsTime: 2.4
Time = 2.5

DICPCG:  Solving for T, Initial residual = 0.0030570935, Final residual = 7.414524e-07, No Iterations 5
DICPCG:  Solving for T, Initial residual = 7.3948703e-07, Final residual = 7.3948703e-07, No Iterations 0
DICPCG:  Solving for T, Initial residual = 7.3948703e-07, Final residual = 7.3948703e-07, No Iterations 0
ExecutionTime = 0.13 s  ClockTime = 0 s

Time = 2.55

DICPCG:  Solving for T, Initial residual = 0.0029860933, Final residual = 7.2374744e-07, No Iterations 5
DICPCG:  Solving for T, Initial residual = 7.2189473e-07, Final residual = 7.2189473e-07, No Iterations 0
DICPCG:  Solving for T, Initial residual = 7.2189473e-07, Final residual = 7.2189473e-07, No Iterations 0
ExecutionTime = 0.14 s  ClockTime = 0 s

runTime.value(): 2.55
snapshotsTime: 2.5
Time = 2.6

DICPCG:  Solving for T, Initial residual = 0.0029182526, Final residual = 7.0669842e-07, No Iterations 5
DICPCG:  Solving for T, Initial residual = 7.0495071e-07, Final residual = 7.0495071e-07, No Iterations 0
DICPCG:  Solving for T, Initial residual = 7.0495071e-07, Final residual = 7.0495071e-07, No Iterations 0
ExecutionTime = 0.14 s  ClockTime = 0 s

Time = 2.65

DICPCG:  Solving for T, Initial residual = 0.0028551972, Final residual = 6.9024639e-07, No Iterations 5
DICPCG:  Solving for T, Initial residual = 6.8859671e-07, Final residual = 6.8859671e-07, No Iterations 0
DICPCG:  Solving for T, Initial residual = 6.8859671e-07, Final residual = 6.8859671e-07, No Iterations 0
ExecutionTime = 0.14 s  ClockTime = 0 s

runTime.value(): 2.65
snapshotsTime: 2.6
Time = 2.7

DICPCG:  Solving for T, Initial residual = 0.0027942613, Final residual = 6.7433864e-07, No Iterations 5
DICPCG:  Solving for T, Initial residual = 6.727806e-07, Final residual = 6.727806e-07, No Iterations 0
DICPCG:  Solving for T, Initial residual = 6.727806e-07, Final residual = 6.727806e-07, No Iterations 0
ExecutionTime = 0.14 s  ClockTime = 0 s

Time = 2.75

DICPCG:  Solving for T, Initial residual = 0.0027353394, Final residual = 6.5893918e-07, No Iterations 5
DICPCG:  Solving for T, Initial residual = 6.5746691e-07, Final residual = 6.5746691e-07, No Iterations 0
DICPCG:  Solving for T, Initial residual = 6.5746691e-07, Final residual = 6.5746691e-07, No Iterations 0
ExecutionTime = 0.14 s  ClockTime = 0 s

runTime.value(): 2.75
snapshotsTime: 2.7
Time = 2.8

DICPCG:  Solving for T, Initial residual = 0.002678592, Final residual = 6.4409436e-07, No Iterations 5
DICPCG:  Solving for T, Initial residual = 6.4270226e-07, Final residual = 6.4270226e-07, No Iterations 0
DICPCG:  Solving for T, Initial residual = 6.4270226e-07, Final residual = 6.4270226e-07, No Iterations 0
ExecutionTime = 0.15 s  ClockTime = 0 s

Time = 2.85

DICPCG:  Solving for T, Initial residual = 0.0026262496, Final residual = 6.2971996e-07, No Iterations 5
DICPCG:  Solving for T, Initial residual = 6.28403e-07, Final residual = 6.28403e-07, No Iterations 0
DICPCG:  Solving for T, Initial residual = 6.28403e-07, Final residual = 6.28403e-07, No Iterations 0
ExecutionTime = 0.15 s  ClockTime = 0 s

runTime.value(): 2.85
snapshotsTime: 2.8
Time = 2.9

DICPCG:  Solving for T, Initial residual = 0.0025755527, Final residual = 6.1579273e-07, No Iterations 5
DICPCG:  Solving for T, Initial residual = 6.1454623e-07, Final residual = 6.1454623e-07, No Iterations 0
DICPCG:  Solving for T, Initial residual = 6.1454623e-07, Final residual = 6.1454623e-07, No Iterations 0
ExecutionTime = 0.15 s  ClockTime = 0 s

Time = 2.95

DICPCG:  Solving for T, Initial residual = 0.0025264249, Final residual = 6.0226065e-07, No Iterations 5
DICPCG:  Solving for T, Initial residual = 6.0108033e-07, Final residual = 6.0108033e-07, No Iterations 0
DICPCG:  Solving for T, Initial residual = 6.0108033e-07, Final residual = 6.0108033e-07, No Iterations 0
ExecutionTime = 0.15 s  ClockTime = 0 s

runTime.value(): 2.95
snapshotsTime: 2.9
Time = 3

DICPCG:  Solving for T, Initial residual = 0.0024799572, Final residual = 5.8913272e-07, No Iterations 5
DICPCG:  Solving for T, Initial residual = 5.8801458e-07, Final residual = 5.8801458e-07, No Iterations 0
DICPCG:  Solving for T, Initial residual = 5.8801458e-07, Final residual = 5.8801458e-07, No Iterations 0
ExecutionTime = 0.15 s  ClockTime = 0 s

Time = 3.05

DICPCG:  Solving for T, Initial residual = 0.0024362344, Final residual = 5.7634768e-07, No Iterations 5
DICPCG:  Solving for T, Initial residual = 5.7529652e-07, Final residual = 5.7529652e-07, No Iterations 0
DICPCG:  Solving for T, Initial residual = 5.7529652e-07, Final residual = 5.7529652e-07, No Iterations 0
ExecutionTime = 0.16 s  ClockTime = 0 s

runTime.value(): 3.05
snapshotsTime: 3
Time = 3.1

DICPCG:  Solving for T, Initial residual = 0.0023935271, Final residual = 5.6386733e-07, No Iterations 5
DICPCG:  Solving for T, Initial residual = 5.6291109e-07, Final residual = 5.6291109e-07, No Iterations 0
DICPCG:  Solving for T, Initial residual = 5.6291109e-07, Final residual = 5.6291109e-07, No Iterations 0
ExecutionTime = 0.16 s  ClockTime = 0 s

Time = 3.15

DICPCG:  Solving for T, Initial residual = 0.0023525946, Final residual = 5.5176854e-07, No Iterations 5
DICPCG:  Solving for T, Initial residual = 5.5080875e-07, Final residual = 5.5080875e-07, No Iterations 0
DICPCG:  Solving for T, Initial residual = 5.5080875e-07, Final residual = 5.5080875e-07, No Iterations 0
ExecutionTime = 0.16 s  ClockTime = 0 s

runTime.value(): 3.15
snapshotsTime: 3.1
Time = 3.2

DICPCG:  Solving for T, Initial residual = 0.0023142875, Final residual = 5.3992785e-07, No Iterations 5
DICPCG:  Solving for T, Initial residual = 5.3901801e-07, Final residual = 5.3901801e-07, No Iterations 0
DICPCG:  Solving for T, Initial residual = 5.3901801e-07, Final residual = 5.3901801e-07, No Iterations 0
ExecutionTime = 0.16 s  ClockTime = 0 s

Time = 3.25

DICPCG:  Solving for T, Initial residual = 0.0022770609, Final residual = 5.283794e-07, No Iterations 5
DICPCG:  Solving for T, Initial residual = 5.2751667e-07, Final residual = 5.2751667e-07, No Iterations 0
DICPCG:  Solving for T, Initial residual = 5.2751667e-07, Final residual = 5.2751667e-07, No Iterations 0
ExecutionTime = 0.16 s  ClockTime = 0 s

runTime.value(): 3.25
snapshotsTime: 3.2
Time = 3.3

DICPCG:  Solving for T, Initial residual = 0.0022418329, Final residual = 5.1711661e-07, No Iterations 5
DICPCG:  Solving for T, Initial residual = 5.1629831e-07, Final residual = 5.1629831e-07, No Iterations 0
DICPCG:  Solving for T, Initial residual = 5.1629831e-07, Final residual = 5.1629831e-07, No Iterations 0
ExecutionTime = 0.16 s  ClockTime = 0 s

Time = 3.35

DICPCG:  Solving for T, Initial residual = 0.0022086097, Final residual = 5.0615978e-07, No Iterations 5
DICPCG:  Solving for T, Initial residual = 5.0538337e-07, Final residual = 5.0538337e-07, No Iterations 0
DICPCG:  Solving for T, Initial residual = 5.0538337e-07, Final residual = 5.0538337e-07, No Iterations 0
ExecutionTime = 0.16 s  ClockTime = 0 s

runTime.value(): 3.35
snapshotsTime: 3.3
Time = 3.4

DICPCG:  Solving for T, Initial residual = 0.0021763946, Final residual = 4.9550477e-07, No Iterations 5
DICPCG:  Solving for T, Initial residual = 4.9476786e-07, Final residual = 4.9476786e-07, No Iterations 0
DICPCG:  Solving for T, Initial residual = 4.9476786e-07, Final residual = 4.9476786e-07, No Iterations 0
ExecutionTime = 0.17 s  ClockTime = 0 s

Time = 3.45

DICPCG:  Solving for T, Initial residual = 0.002146656, Final residual = 4.8514795e-07, No Iterations 5
DICPCG:  Solving for T, Initial residual = 4.8444829e-07, Final residual = 4.8444829e-07, No Iterations 0
DICPCG:  Solving for T, Initial residual = 4.8444829e-07, Final residual = 4.8444829e-07, No Iterations 0
ExecutionTime = 0.17 s  ClockTime = 0 s

runTime.value(): 3.45
snapshotsTime: 3.4
Time = 3.5

DICPCG:  Solving for T, Initial residual = 0.0021176957, Final residual = 4.7505774e-07, No Iterations 5
DICPCG:  Solving for T, Initial residual = 4.7439324e-07, Final residual = 4.7439324e-07, No Iterations 0
DICPCG:  Solving for T, Initial residual = 4.7439324e-07, Final residual = 4.7439324e-07, No Iterations 0
ExecutionTime = 0.18 s  ClockTime = 0 s

Time = 3.55

DICPCG:  Solving for T, Initial residual = 0.0020909471, Final residual = 4.6522812e-07, No Iterations 5
DICPCG:  Solving for T, Initial residual = 4.6459684e-07, Final residual = 4.6459684e-07, No Iterations 0
DICPCG:  Solving for T, Initial residual = 4.6459684e-07, Final residual = 4.6459684e-07, No Iterations 0
ExecutionTime = 0.18 s  ClockTime = 0 s

runTime.value(): 3.55
snapshotsTime: 3.5
Time = 3.6

DICPCG:  Solving for T, Initial residual = 0.002065219, Final residual = 4.5563386e-07, No Iterations 5
DICPCG:  Solving for T, Initial residual = 4.5503398e-07, Final residual = 4.5503398e-07, No Iterations 0
DICPCG:  Solving for T, Initial residual = 4.5503398e-07, Final residual = 4.5503398e-07, No Iterations 0
ExecutionTime = 0.18 s  ClockTime = 0 s

Time = 3.65

DICPCG:  Solving for T, Initial residual = 0.0020409942, Final residual = 4.462677e-07, No Iterations 5
DICPCG:  Solving for T, Initial residual = 4.4569753e-07, Final residual = 4.4569753e-07, No Iterations 0
DICPCG:  Solving for T, Initial residual = 4.4569753e-07, Final residual = 4.4569753e-07, No Iterations 0
ExecutionTime = 0.18 s  ClockTime = 0 s

runTime.value(): 3.65
snapshotsTime: 3.6
Time = 3.7

DICPCG:  Solving for T, Initial residual = 0.0020182379, Final residual = 4.3715259e-07, No Iterations 5
DICPCG:  Solving for T, Initial residual = 4.3661048e-07, Final residual = 4.3661048e-07, No Iterations 0
DICPCG:  Solving for T, Initial residual = 4.3661048e-07, Final residual = 4.3661048e-07, No Iterations 0
ExecutionTime = 0.18 s  ClockTime = 0 s

Time = 3.75

DICPCG:  Solving for T, Initial residual = 0.0019967244, Final residual = 4.2828663e-07, No Iterations 5
DICPCG:  Solving for T, Initial residual = 4.2777104e-07, Final residual = 4.2777104e-07, No Iterations 0
DICPCG:  Solving for T, Initial residual = 4.2777104e-07, Final residual = 4.2777104e-07, No Iterations 0
ExecutionTime = 0.19 s  ClockTime = 0 s

runTime.value(): 3.75
snapshotsTime: 3.7
Time = 3.8

DICPCG:  Solving for T, Initial residual = 0.0019765456, Final residual = 4.1965345e-07, No Iterations 5
DICPCG:  Solving for T, Initial residual = 4.1916294e-07, Final residual = 4.1916294e-07, No Iterations 0
DICPCG:  Solving for T, Initial residual = 4.1916294e-07, Final residual = 4.1916294e-07, No Iterations 0
ExecutionTime = 0.19 s  ClockTime = 0 s

Time = 3.85

DICPCG:  Solving for T, Initial residual = 0.001957113, Final residual = 4.1123001e-07, No Iterations 5
DICPCG:  Solving for T, Initial residual = 4.1076325e-07, Final residual = 4.1076325e-07, No Iterations 0
DICPCG:  Solving for T, Initial residual = 4.1076325e-07, Final residual = 4.1076325e-07, No Iterations 0
ExecutionTime = 0.19 s  ClockTime = 0 s

runTime.value(): 3.85
snapshotsTime: 3.8
Time = 3.9

DICPCG:  Solving for T, Initial residual = 0.0019380601, Final residual = 4.0304003e-07, No Iterations 5
DICPCG:  Solving for T, Initial residual = 4.0259572e-07, Final residual = 4.0259572e-07, No Iterations 0
DICPCG:  Solving for T, Initial residual = 4.0259572e-07, Final residual = 4.0259572e-07, No Iterations 0
ExecutionTime = 0.19 s  ClockTime = 0 s

Time = 3.95

DICPCG:  Solving for T, Initial residual = 0.0019193712, Final residual = 3.9508967e-07, No Iterations 5
DICPCG:  Solving for T, Initial residual = 3.9466658e-07, Final residual = 3.9466658e-07, No Iterations 0
DICPCG:  Solving for T, Initial residual = 3.9466658e-07, Final residual = 3.9466658e-07, No Iterations 0
ExecutionTime = 0.19 s  ClockTime = 0 s

runTime.value(): 3.95
snapshotsTime: 3.9
Time = 4

DICPCG:  Solving for T, Initial residual = 0.0019010317, Final residual = 3.8733779e-07, No Iterations 5
DICPCG:  Solving for T, Initial residual = 3.869348e-07, Final residual = 3.869348e-07, No Iterations 0
DICPCG:  Solving for T, Initial residual = 3.869348e-07, Final residual = 3.869348e-07, No Iterations 0
ExecutionTime = 0.2 s  ClockTime = 0 s

Time = 4.05

DICPCG:  Solving for T, Initial residual = 0.0018830276, Final residual = 3.7978558e-07, No Iterations 5
DICPCG:  Solving for T, Initial residual = 3.7940163e-07, Final residual = 3.7940163e-07, No Iterations 0
DICPCG:  Solving for T, Initial residual = 3.7940163e-07, Final residual = 3.7940163e-07, No Iterations 0
ExecutionTime = 0.2 s  ClockTime = 0 s

runTime.value(): 4.05
snapshotsTime: 4
Time = 4.1

DICPCG:  Solving for T, Initial residual = 0.0018653459, Final residual = 3.724389e-07, No Iterations 5
DICPCG:  Solving for T, Initial residual = 3.7207298e-07, Final residual = 3.7207298e-07, No Iterations 0
DICPCG:  Solving for T, Initial residual = 3.7207298e-07, Final residual = 3.7207298e-07, No Iterations 0
ExecutionTime = 0.2 s  ClockTime = 0 s

Time = 4.15

DICPCG:  Solving for T, Initial residual = 0.0018478962, Final residual = 3.6526434e-07, No Iterations 5
DICPCG:  Solving for T, Initial residual = 3.6493086e-07, Final residual = 3.6493086e-07, No Iterations 0
DICPCG:  Solving for T, Initial residual = 3.6493086e-07, Final residual = 3.6493086e-07, No Iterations 0
ExecutionTime = 0.2 s  ClockTime = 0 s

runTime.value(): 4.15
snapshotsTime: 4.1
Time = 4.2

DICPCG:  Solving for T, Initial residual = 0.001830681, Final residual = 3.5827706e-07, No Iterations 5
DICPCG:  Solving for T, Initial residual = 3.5796661e-07, Final residual = 3.5796661e-07, No Iterations 0
DICPCG:  Solving for T, Initial residual = 3.5796661e-07, Final residual = 3.5796661e-07, No Iterations 0
ExecutionTime = 0.2 s  ClockTime = 0 s

Time = 4.25

DICPCG:  Solving for T, Initial residual = 0.0018137055, Final residual = 3.5147016e-07, No Iterations 5
DICPCG:  Solving for T, Initial residual = 3.5115746e-07, Final residual = 3.5115746e-07, No Iterations 0
DICPCG:  Solving for T, Initial residual = 3.5115746e-07, Final residual = 3.5115746e-07, No Iterations 0
ExecutionTime = 0.2 s  ClockTime = 0 s

runTime.value(): 4.25
snapshotsTime: 4.2
Time = 4.3

DICPCG:  Solving for T, Initial residual = 0.0017969258, Final residual = 3.4484181e-07, No Iterations 5
DICPCG:  Solving for T, Initial residual = 3.4454379e-07, Final residual = 3.4454379e-07, No Iterations 0
DICPCG:  Solving for T, Initial residual = 3.4454379e-07, Final residual = 3.4454379e-07, No Iterations 0
ExecutionTime = 0.2 s  ClockTime = 0 s

Time = 4.35

DICPCG:  Solving for T, Initial residual = 0.0017804223, Final residual = 3.383781e-07, No Iterations 5
DICPCG:  Solving for T, Initial residual = 3.38094e-07, Final residual = 3.38094e-07, No Iterations 0
DICPCG:  Solving for T, Initial residual = 3.38094e-07, Final residual = 3.38094e-07, No Iterations 0
ExecutionTime = 0.2 s  ClockTime = 0 s

runTime.value(): 4.35
snapshotsTime: 4.3
Time = 4.4

DICPCG:  Solving for T, Initial residual = 0.0017641851, Final residual = 3.3211243e-07, No Iterations 5
DICPCG:  Solving for T, Initial residual = 3.318415e-07, Final residual = 3.318415e-07, No Iterations 0
DICPCG:  Solving for T, Initial residual = 3.318415e-07, Final residual = 3.318415e-07, No Iterations 0
ExecutionTime = 0.2 s  ClockTime = 0 s

Time = 4.45

DICPCG:  Solving for T, Initial residual = 0.0017482051, Final residual = 3.2600423e-07, No Iterations 5
DICPCG:  Solving for T, Initial residual = 3.2574579e-07, Final residual = 3.2574579e-07, No Iterations 0
DICPCG:  Solving for T, Initial residual = 3.2574579e-07, Final residual = 3.2574579e-07, No Iterations 0
ExecutionTime = 0.22 s  ClockTime = 0 s

runTime.value(): 4.45
snapshotsTime: 4.4
Time = 4.5

DICPCG:  Solving for T, Initial residual = 0.0017324733, Final residual = 3.2007473e-07, No Iterations 5
DICPCG:  Solving for T, Initial residual = 3.1982813e-07, Final residual = 3.1982813e-07, No Iterations 0
DICPCG:  Solving for T, Initial residual = 3.1982813e-07, Final residual = 3.1982813e-07, No Iterations 0
ExecutionTime = 0.22 s  ClockTime = 0 s

Time = 4.55

DICPCG:  Solving for T, Initial residual = 0.0017169814, Final residual = 3.1431348e-07, No Iterations 5
DICPCG:  Solving for T, Initial residual = 3.1407811e-07, Final residual = 3.1407811e-07, No Iterations 0
DICPCG:  Solving for T, Initial residual = 3.1407811e-07, Final residual = 3.1407811e-07, No Iterations 0
ExecutionTime = 0.22 s  ClockTime = 0 s

runTime.value(): 4.55
snapshotsTime: 4.5
Time = 4.6

DICPCG:  Solving for T, Initial residual = 0.0017017215, Final residual = 3.0872329e-07, No Iterations 5
DICPCG:  Solving for T, Initial residual = 3.0849855e-07, Final residual = 3.0849855e-07, No Iterations 0
DICPCG:  Solving for T, Initial residual = 3.0849855e-07, Final residual = 3.0849855e-07, No Iterations 0
ExecutionTime = 0.22 s  ClockTime = 0 s

Time = 4.65

DICPCG:  Solving for T, Initial residual = 0.0016866861, Final residual = 3.0329086e-07, No Iterations 5
DICPCG:  Solving for T, Initial residual = 3.0307621e-07, Final residual = 3.0307621e-07, No Iterations 0
DICPCG:  Solving for T, Initial residual = 3.0307621e-07, Final residual = 3.0307621e-07, No Iterations 0
ExecutionTime = 0.22 s  ClockTime = 0 s

runTime.value(): 4.65
snapshotsTime: 4.6
Time = 4.7

DICPCG:  Solving for T, Initial residual = 0.001671868, Final residual = 2.9802229e-07, No Iterations 5
DICPCG:  Solving for T, Initial residual = 2.978172e-07, Final residual = 2.978172e-07, No Iterations 0
DICPCG:  Solving for T, Initial residual = 2.978172e-07, Final residual = 2.978172e-07, No Iterations 0
ExecutionTime = 0.22 s  ClockTime = 0 s

Time = 4.75

DICPCG:  Solving for T, Initial residual = 0.0016572603, Final residual = 2.9290117e-07, No Iterations 5
DICPCG:  Solving for T, Initial residual = 2.9270516e-07, Final residual = 2.9270516e-07, No Iterations 0
DICPCG:  Solving for T, Initial residual = 2.9270516e-07, Final residual = 2.9270516e-07, No Iterations 0
ExecutionTime = 0.22 s  ClockTime = 0 s

runTime.value(): 4.75
snapshotsTime: 4.7
Time = 4.8

DICPCG:  Solving for T, Initial residual = 0.0016428566, Final residual = 2.8790887e-07, No Iterations 5
DICPCG:  Solving for T, Initial residual = 2.877215e-07, Final residual = 2.877215e-07, No Iterations 0
DICPCG:  Solving for T, Initial residual = 2.877215e-07, Final residual = 2.877215e-07, No Iterations 0
ExecutionTime = 0.22 s  ClockTime = 0 s

Time = 4.85

DICPCG:  Solving for T, Initial residual = 0.0016286507, Final residual = 2.8305011e-07, No Iterations 5
DICPCG:  Solving for T, Initial residual = 2.8287093e-07, Final residual = 2.8287093e-07, No Iterations 0
DICPCG:  Solving for T, Initial residual = 2.8287093e-07, Final residual = 2.8287093e-07, No Iterations 0
ExecutionTime = 0.23 s  ClockTime = 0 s

runTime.value(): 4.85
snapshotsTime: 4.8
Time = 4.9

DICPCG:  Solving for T, Initial residual = 0.0016146368, Final residual = 2.7835394e-07, No Iterations 5
DICPCG:  Solving for T, Initial residual = 2.7818253e-07, Final residual = 2.7818253e-07, No Iterations 0
DICPCG:  Solving for T, Initial residual = 2.7818253e-07, Final residual = 2.7818253e-07, No Iterations 0
ExecutionTime = 0.23 s  ClockTime = 0 s

Time = 4.95

DICPCG:  Solving for T, Initial residual = 0.0016008091, Final residual = 2.7378159e-07, No Iterations 5
DICPCG:  Solving for T, Initial residual = 2.7361756e-07, Final residual = 2.7361756e-07, No Iterations 0
DICPCG:  Solving for T, Initial residual = 2.7361756e-07, Final residual = 2.7361756e-07, No Iterations 0
ExecutionTime = 0.24 s  ClockTime = 0 s

runTime.value(): 4.95
snapshotsTime: 4.9
Time = 5

DICPCG:  Solving for T, Initial residual = 0.0015871625, Final residual = 2.6935029e-07, No Iterations 5
DICPCG:  Solving for T, Initial residual = 2.6919328e-07, Final residual = 2.6919328e-07, No Iterations 0
DICPCG:  Solving for T, Initial residual = 2.6919328e-07, Final residual = 2.6919328e-07, No Iterations 0
ExecutionTime = 0.24 s  ClockTime = 0 s

Time = 5.05

DICPCG:  Solving for T, Initial residual = 0.0015736918, Final residual = 2.650466e-07, No Iterations 5
DICPCG:  Solving for T, Initial residual = 2.6489625e-07, Final residual = 2.6489625e-07, No Iterations 0
DICPCG:  Solving for T, Initial residual = 2.6489625e-07, Final residual = 2.6489625e-07, No Iterations 0
ExecutionTime = 0.24 s  ClockTime = 0 s

runTime.value(): 5.05
snapshotsTime: 5
Time = 5.1

DICPCG:  Solving for T, Initial residual = 0.0015603922, Final residual = 9.9503546e-07, No Iterations 4
DICPCG:  Solving for T, Initial residual = 9.9448595e-07, Final residual = 9.9448595e-07, No Iterations 0
DICPCG:  Solving for T, Initial residual = 9.9448595e-07, Final residual = 9.9448595e-07, No Iterations 0
ExecutionTime = 0.24 s  ClockTime = 0 s

Time = 5.15

DICPCG:  Solving for T, Initial residual = 0.0015472594, Final residual = 9.8267862e-07, No Iterations 4
DICPCG:  Solving for T, Initial residual = 9.8215042e-07, Final residual = 9.8215042e-07, No Iterations 0
DICPCG:  Solving for T, Initial residual = 9.8215042e-07, Final residual = 9.8215042e-07, No Iterations 0
ExecutionTime = 0.24 s  ClockTime = 0 s

runTime.value(): 5.15
snapshotsTime: 5.1
Time = 5.2

DICPCG:  Solving for T, Initial residual = 0.0015342878, Final residual = 9.7067634e-07, No Iterations 4
DICPCG:  Solving for T, Initial residual = 9.7016845e-07, Final residual = 9.7016845e-07, No Iterations 0
DICPCG:  Solving for T, Initial residual = 9.7016845e-07, Final residual = 9.7016845e-07, No Iterations 0
ExecutionTime = 0.25 s  ClockTime = 0 s

Time = 5.25

DICPCG:  Solving for T, Initial residual = 0.0015214738, Final residual = 9.5896364e-07, No Iterations 4
DICPCG:  Solving for T, Initial residual = 9.5847517e-07, Final residual = 9.5847517e-07, No Iterations 0
DICPCG:  Solving for T, Initial residual = 9.5847517e-07, Final residual = 9.5847517e-07, No Iterations 0
ExecutionTime = 0.25 s  ClockTime = 0 s

runTime.value(): 5.25
snapshotsTime: 5.2
Time = 5.3

DICPCG:  Solving for T, Initial residual = 0.0015088136, Final residual = 9.4751742e-07, No Iterations 4
DICPCG:  Solving for T, Initial residual = 9.4704749e-07, Final residual = 9.4704749e-07, No Iterations 0
DICPCG:  Solving for T, Initial residual = 9.4704749e-07, Final residual = 9.4704749e-07, No Iterations 0
ExecutionTime = 0.25 s  ClockTime = 0 s

Time = 5.35

DICPCG:  Solving for T, Initial residual = 0.0014963033, Final residual = 9.3632054e-07, No Iterations 4
DICPCG:  Solving for T, Initial residual = 9.3586836e-07, Final residual = 9.3586836e-07, No Iterations 0
DICPCG:  Solving for T, Initial residual = 9.3586836e-07, Final residual = 9.3586836e-07, No Iterations 0
ExecutionTime = 0.25 s  ClockTime = 0 s

runTime.value(): 5.35
snapshotsTime: 5.3
Time = 5.4

DICPCG:  Solving for T, Initial residual = 0.0014839392, Final residual = 9.2537754e-07, No Iterations 4
DICPCG:  Solving for T, Initial residual = 9.2494232e-07, Final residual = 9.2494232e-07, No Iterations 0
DICPCG:  Solving for T, Initial residual = 9.2494232e-07, Final residual = 9.2494232e-07, No Iterations 0
ExecutionTime = 0.25 s  ClockTime = 0 s

Time = 5.45

DICPCG:  Solving for T, Initial residual = 0.0014717176, Final residual = 9.1468788e-07, No Iterations 4
DICPCG:  Solving for T, Initial residual = 9.1426889e-07, Final residual = 9.1426889e-07, No Iterations 0
DICPCG:  Solving for T, Initial residual = 9.1426889e-07, Final residual = 9.1426889e-07, No Iterations 0
ExecutionTime = 0.25 s  ClockTime = 0 s

runTime.value(): 5.45
snapshotsTime: 5.4
Time = 5.5

DICPCG:  Solving for T, Initial residual = 0.0014596353, Final residual = 9.0430057e-07, No Iterations 4
DICPCG:  Solving for T, Initial residual = 9.0389707e-07, Final residual = 9.0389707e-07, No Iterations 0
DICPCG:  Solving for T, Initial residual = 9.0389707e-07, Final residual = 9.0389707e-07, No Iterations 0
ExecutionTime = 0.25 s  ClockTime = 0 s

Time = 5.55

DICPCG:  Solving for T, Initial residual = 0.001447689, Final residual = 8.9414237e-07, No Iterations 4
DICPCG:  Solving for T, Initial residual = 8.9375371e-07, Final residual = 8.9375371e-07, No Iterations 0
DICPCG:  Solving for T, Initial residual = 8.9375371e-07, Final residual = 8.9375371e-07, No Iterations 0
ExecutionTime = 0.26 s  ClockTime = 0 s

runTime.value(): 5.55
snapshotsTime: 5.5
Time = 5.6

DICPCG:  Solving for T, Initial residual = 0.0014358754, Final residual = 8.8420406e-07, No Iterations 4
DICPCG:  Solving for T, Initial residual = 8.8382959e-07, Final residual = 8.8382959e-07, No Iterations 0
DICPCG:  Solving for T, Initial residual = 8.8382959e-07, Final residual = 8.8382959e-07, No Iterations 0
ExecutionTime = 0.26 s  ClockTime = 0 s

Time = 5.65

DICPCG:  Solving for T, Initial residual = 0.0014241917, Final residual = 8.7448993e-07, No Iterations 4
DICPCG:  Solving for T, Initial residual = 8.7412905e-07, Final residual = 8.7412905e-07, No Iterations 0
DICPCG:  Solving for T, Initial residual = 8.7412905e-07, Final residual = 8.7412905e-07, No Iterations 0
ExecutionTime = 0.26 s  ClockTime = 0 s

runTime.value(): 5.65
snapshotsTime: 5.6
Time = 5.7

DICPCG:  Solving for T, Initial residual = 0.001412635, Final residual = 8.6496701e-07, No Iterations 4
DICPCG:  Solving for T, Initial residual = 8.6461916e-07, Final residual = 8.6461916e-07, No Iterations 0
DICPCG:  Solving for T, Initial residual = 8.6461916e-07, Final residual = 8.6461916e-07, No Iterations 0
ExecutionTime = 0.26 s  ClockTime = 0 s

Time = 5.75

DICPCG:  Solving for T, Initial residual = 0.0014012024, Final residual = 8.556996e-07, No Iterations 4
DICPCG:  Solving for T, Initial residual = 8.5536421e-07, Final residual = 8.5536421e-07, No Iterations 0
DICPCG:  Solving for T, Initial residual = 8.5536421e-07, Final residual = 8.5536421e-07, No Iterations 0
ExecutionTime = 0.26 s  ClockTime = 0 s

runTime.value(): 5.75
snapshotsTime: 5.7
Time = 5.8

DICPCG:  Solving for T, Initial residual = 0.0013898914, Final residual = 8.4664198e-07, No Iterations 4
DICPCG:  Solving for T, Initial residual = 8.4631852e-07, Final residual = 8.4631852e-07, No Iterations 0
DICPCG:  Solving for T, Initial residual = 8.4631852e-07, Final residual = 8.4631852e-07, No Iterations 0
ExecutionTime = 0.27 s  ClockTime = 0 s

Time = 5.85

DICPCG:  Solving for T, Initial residual = 0.0013786993, Final residual = 8.3781532e-07, No Iterations 4
DICPCG:  Solving for T, Initial residual = 8.3750328e-07, Final residual = 8.3750328e-07, No Iterations 0
DICPCG:  Solving for T, Initial residual = 8.3750328e-07, Final residual = 8.3750328e-07, No Iterations 0
ExecutionTime = 0.27 s  ClockTime = 0 s

runTime.value(): 5.85
snapshotsTime: 5.8
Time = 5.9

DICPCG:  Solving for T, Initial residual = 0.0013676238, Final residual = 8.2918974e-07, No Iterations 4
DICPCG:  Solving for T, Initial residual = 8.2888864e-07, Final residual = 8.2888864e-07, No Iterations 0
DICPCG:  Solving for T, Initial residual = 8.2888864e-07, Final residual = 8.2888864e-07, No Iterations 0
ExecutionTime = 0.27 s  ClockTime = 0 s

Time = 5.95

DICPCG:  Solving for T, Initial residual = 0.0013566491, Final residual = 8.2070809e-07, No Iterations 4
DICPCG:  Solving for T, Initial residual = 8.2042557e-07, Final residual = 8.2042557e-07, No Iterations 0
DICPCG:  Solving for T, Initial residual = 8.2042557e-07, Final residual = 8.2042557e-07, No Iterations 0
ExecutionTime = 0.27 s  ClockTime = 0 s

runTime.value(): 5.95
snapshotsTime: 5.9
Time = 6

DICPCG:  Solving for T, Initial residual = 0.0013457402, Final residual = 8.1235526e-07, No Iterations 4
DICPCG:  Solving for T, Initial residual = 8.1211866e-07, Final residual = 8.1211866e-07, No Iterations 0
DICPCG:  Solving for T, Initial residual = 8.1211866e-07, Final residual = 8.1211866e-07, No Iterations 0
ExecutionTime = 0.27 s  ClockTime = 0 s

Time = 6.05

DICPCG:  Solving for T, Initial residual = 0.0013349427, Final residual = 8.0416674e-07, No Iterations 4
DICPCG:  Solving for T, Initial residual = 8.0392388e-07, Final residual = 8.0392388e-07, No Iterations 0
DICPCG:  Solving for T, Initial residual = 8.0392388e-07, Final residual = 8.0392388e-07, No Iterations 0
ExecutionTime = 0.28 s  ClockTime = 0 s

runTime.value(): 6.05
snapshotsTime: 6
Time = 6.1

DICPCG:  Solving for T, Initial residual = 0.0013242128, Final residual = 7.9610729e-07, No Iterations 4
DICPCG:  Solving for T, Initial residual = 7.9586334e-07, Final residual = 7.9586334e-07, No Iterations 0
DICPCG:  Solving for T, Initial residual = 7.9586334e-07, Final residual = 7.9586334e-07, No Iterations 0
ExecutionTime = 0.28 s  ClockTime = 0 s

Time = 6.15

DICPCG:  Solving for T, Initial residual = 0.0013135747, Final residual = 7.8818023e-07, No Iterations 4
DICPCG:  Solving for T, Initial residual = 7.8794505e-07, Final residual = 7.8794505e-07, No Iterations 0
DICPCG:  Solving for T, Initial residual = 7.8794505e-07, Final residual = 7.8794505e-07, No Iterations 0
ExecutionTime = 0.28 s  ClockTime = 0 s

runTime.value(): 6.15
snapshotsTime: 6.1
Time = 6.2

DICPCG:  Solving for T, Initial residual = 0.0013030433, Final residual = 7.8038806e-07, No Iterations 4
DICPCG:  Solving for T, Initial residual = 7.8016129e-07, Final residual = 7.8016129e-07, No Iterations 0
DICPCG:  Solving for T, Initial residual = 7.8016129e-07, Final residual = 7.8016129e-07, No Iterations 0
ExecutionTime = 0.29 s  ClockTime = 0 s

Time = 6.25

DICPCG:  Solving for T, Initial residual = 0.0012926166, Final residual = 7.7273911e-07, No Iterations 4
DICPCG:  Solving for T, Initial residual = 7.7252041e-07, Final residual = 7.7252041e-07, No Iterations 0
DICPCG:  Solving for T, Initial residual = 7.7252041e-07, Final residual = 7.7252041e-07, No Iterations 0
ExecutionTime = 0.29 s  ClockTime = 0 s

runTime.value(): 6.25
snapshotsTime: 6.2
Time = 6.3

DICPCG:  Solving for T, Initial residual = 0.0012822929, Final residual = 7.6522856e-07, No Iterations 4
DICPCG:  Solving for T, Initial residual = 7.6501762e-07, Final residual = 7.6501762e-07, No Iterations 0
DICPCG:  Solving for T, Initial residual = 7.6501762e-07, Final residual = 7.6501762e-07, No Iterations 0
ExecutionTime = 0.29 s  ClockTime = 0 s

Time = 6.35

DICPCG:  Solving for T, Initial residual = 0.0012720702, Final residual = 7.5786501e-07, No Iterations 4
DICPCG:  Solving for T, Initial residual = 7.5766151e-07, Final residual = 7.5766151e-07, No Iterations 0
DICPCG:  Solving for T, Initial residual = 7.5766151e-07, Final residual = 7.5766151e-07, No Iterations 0
ExecutionTime = 0.29 s  ClockTime = 0 s

runTime.value(): 6.35
snapshotsTime: 6.3
Time = 6.4

DICPCG:  Solving for T, Initial residual = 0.0012619468, Final residual = 7.5063971e-07, No Iterations 4
DICPCG:  Solving for T, Initial residual = 7.5044334e-07, Final residual = 7.5044334e-07, No Iterations 0
DICPCG:  Solving for T, Initial residual = 7.5044334e-07, Final residual = 7.5044334e-07, No Iterations 0
ExecutionTime = 0.29 s  ClockTime = 0 s

Time = 6.45

DICPCG:  Solving for T, Initial residual = 0.0012519209, Final residual = 7.4355168e-07, No Iterations 4
DICPCG:  Solving for T, Initial residual = 7.4336217e-07, Final residual = 7.4336217e-07, No Iterations 0
DICPCG:  Solving for T, Initial residual = 7.4336217e-07, Final residual = 7.4336217e-07, No Iterations 0
ExecutionTime = 0.3 s  ClockTime = 0 s

runTime.value(): 6.45
snapshotsTime: 6.4
Time = 6.5

DICPCG:  Solving for T, Initial residual = 0.0012419909, Final residual = 7.3660072e-07, No Iterations 4
DICPCG:  Solving for T, Initial residual = 7.3641778e-07, Final residual = 7.3641778e-07, No Iterations 0
DICPCG:  Solving for T, Initial residual = 7.3641778e-07, Final residual = 7.3641778e-07, No Iterations 0
ExecutionTime = 0.3 s  ClockTime = 0 s

Time = 6.55

DICPCG:  Solving for T, Initial residual = 0.0012321552, Final residual = 7.2976664e-07, No Iterations 4
DICPCG:  Solving for T, Initial residual = 7.2959002e-07, Final residual = 7.2959002e-07, No Iterations 0
DICPCG:  Solving for T, Initial residual = 7.2959002e-07, Final residual = 7.2959002e-07, No Iterations 0
ExecutionTime = 0.3 s  ClockTime = 0 s

runTime.value(): 6.55
snapshotsTime: 6.5
Time = 6.6

DICPCG:  Solving for T, Initial residual = 0.0012224122, Final residual = 7.2303542e-07, No Iterations 4
DICPCG:  Solving for T, Initial residual = 7.2286487e-07, Final residual = 7.2286487e-07, No Iterations 0
DICPCG:  Solving for T, Initial residual = 7.2286487e-07, Final residual = 7.2286487e-07, No Iterations 0
ExecutionTime = 0.3 s  ClockTime = 0 s

Time = 6.65

DICPCG:  Solving for T, Initial residual = 0.0012127605, Final residual = 7.1640586e-07, No Iterations 4
DICPCG:  Solving for T, Initial residual = 7.1624115e-07, Final residual = 7.1624115e-07, No Iterations 0
DICPCG:  Solving for T, Initial residual = 7.1624115e-07, Final residual = 7.1624115e-07, No Iterations 0
ExecutionTime = 0.3 s  ClockTime = 0 s

runTime.value(): 6.65
snapshotsTime: 6.6
Time = 6.7

DICPCG:  Solving for T, Initial residual = 0.0012031986, Final residual = 7.0989087e-07, No Iterations 4
DICPCG:  Solving for T, Initial residual = 7.0973178e-07, Final residual = 7.0973178e-07, No Iterations 0
DICPCG:  Solving for T, Initial residual = 7.0973178e-07, Final residual = 7.0973178e-07, No Iterations 0
ExecutionTime = 0.31 s  ClockTime = 0 s

Time = 6.75

DICPCG:  Solving for T, Initial residual = 0.001193725, Final residual = 7.0346685e-07, No Iterations 4
DICPCG:  Solving for T, Initial residual = 7.0331315e-07, Final residual = 7.0331315e-07, No Iterations 0
DICPCG:  Solving for T, Initial residual = 7.0331315e-07, Final residual = 7.0331315e-07, No Iterations 0
ExecutionTime = 0.31 s  ClockTime = 0 s

runTime.value(): 6.75
snapshotsTime: 6.7
Time = 6.8

DICPCG:  Solving for T, Initial residual = 0.0011843385, Final residual = 6.9713406e-07, No Iterations 4
DICPCG:  Solving for T, Initial residual = 6.9698556e-07, Final residual = 6.9698556e-07, No Iterations 0
DICPCG:  Solving for T, Initial residual = 6.9698556e-07, Final residual = 6.9698556e-07, No Iterations 0
ExecutionTime = 0.31 s  ClockTime = 0 s

Time = 6.85

DICPCG:  Solving for T, Initial residual = 0.0011750377, Final residual = 6.9089699e-07, No Iterations 4
DICPCG:  Solving for T, Initial residual = 6.9075348e-07, Final residual = 6.9075348e-07, No Iterations 0
DICPCG:  Solving for T, Initial residual = 6.9075348e-07, Final residual = 6.9075348e-07, No Iterations 0
ExecutionTime = 0.31 s  ClockTime = 0 s

runTime.value(): 6.85
snapshotsTime: 6.8
Time = 6.9

DICPCG:  Solving for T, Initial residual = 0.0011658213, Final residual = 6.8474399e-07, No Iterations 4
DICPCG:  Solving for T, Initial residual = 6.8460528e-07, Final residual = 6.8460528e-07, No Iterations 0
DICPCG:  Solving for T, Initial residual = 6.8460528e-07, Final residual = 6.8460528e-07, No Iterations 0
ExecutionTime = 0.31 s  ClockTime = 0 s

Time = 6.95

DICPCG:  Solving for T, Initial residual = 0.001156688, Final residual = 6.7867015e-07, No Iterations 4
DICPCG:  Solving for T, Initial residual = 6.7853607e-07, Final residual = 6.7853607e-07, No Iterations 0
DICPCG:  Solving for T, Initial residual = 6.7853607e-07, Final residual = 6.7853607e-07, No Iterations 0
ExecutionTime = 0.32 s  ClockTime = 0 s

runTime.value(): 6.95
snapshotsTime: 6.9
Time = 7

DICPCG:  Solving for T, Initial residual = 0.0011476367, Final residual = 6.72682e-07, No Iterations 4
DICPCG:  Solving for T, Initial residual = 6.7255237e-07, Final residual = 6.7255237e-07, No Iterations 0
DICPCG:  Solving for T, Initial residual = 6.7255237e-07, Final residual = 6.7255237e-07, No Iterations 0
ExecutionTime = 0.32 s  ClockTime = 0 s

Time = 7.05

DICPCG:  Solving for T, Initial residual = 0.0011386662, Final residual = 6.6677863e-07, No Iterations 4
DICPCG:  Solving for T, Initial residual = 6.6665329e-07, Final residual = 6.6665329e-07, No Iterations 0
DICPCG:  Solving for T, Initial residual = 6.6665329e-07, Final residual = 6.6665329e-07, No Iterations 0
ExecutionTime = 0.32 s  ClockTime = 0 s

runTime.value(): 7.05
snapshotsTime: 7
Time = 7.1

DICPCG:  Solving for T, Initial residual = 0.0011297753, Final residual = 6.6095889e-07, No Iterations 4
DICPCG:  Solving for T, Initial residual = 6.6083767e-07, Final residual = 6.6083767e-07, No Iterations 0
DICPCG:  Solving for T, Initial residual = 6.6083767e-07, Final residual = 6.6083767e-07, No Iterations 0
ExecutionTime = 0.32 s  ClockTime = 0 s

Time = 7.15

DICPCG:  Solving for T, Initial residual = 0.001120963, Final residual = 6.5522072e-07, No Iterations 4
DICPCG:  Solving for T, Initial residual = 6.5510348e-07, Final residual = 6.5510348e-07, No Iterations 0
DICPCG:  Solving for T, Initial residual = 6.5510348e-07, Final residual = 6.5510348e-07, No Iterations 0
ExecutionTime = 0.32 s  ClockTime = 0 s

runTime.value(): 7.15
snapshotsTime: 7.1
Time = 7.2

DICPCG:  Solving for T, Initial residual = 0.0011122281, Final residual = 6.4955703e-07, No Iterations 4
DICPCG:  Solving for T, Initial residual = 6.4944361e-07, Final residual = 6.4944361e-07, No Iterations 0
DICPCG:  Solving for T, Initial residual = 6.4944361e-07, Final residual = 6.4944361e-07, No Iterations 0
ExecutionTime = 0.33 s  ClockTime = 0 s

Time = 7.25

DICPCG:  Solving for T, Initial residual = 0.0011035696, Final residual = 6.4396652e-07, No Iterations 4
DICPCG:  Solving for T, Initial residual = 6.4385678e-07, Final residual = 6.4385678e-07, No Iterations 0
DICPCG:  Solving for T, Initial residual = 6.4385678e-07, Final residual = 6.4385678e-07, No Iterations 0
ExecutionTime = 0.33 s  ClockTime = 0 s

runTime.value(): 7.25
snapshotsTime: 7.2
Time = 7.3

DICPCG:  Solving for T, Initial residual = 0.0010949865, Final residual = 6.3844855e-07, No Iterations 4
DICPCG:  Solving for T, Initial residual = 6.3834237e-07, Final residual = 6.3834237e-07, No Iterations 0
DICPCG:  Solving for T, Initial residual = 6.3834237e-07, Final residual = 6.3834237e-07, No Iterations 0
ExecutionTime = 0.33 s  ClockTime = 0 s

Time = 7.35

DICPCG:  Solving for T, Initial residual = 0.0010864778, Final residual = 6.3299934e-07, No Iterations 4
DICPCG:  Solving for T, Initial residual = 6.3289657e-07, Final residual = 6.3289657e-07, No Iterations 0
DICPCG:  Solving for T, Initial residual = 6.3289657e-07, Final residual = 6.3289657e-07, No Iterations 0
ExecutionTime = 0.33 s  ClockTime = 0 s

runTime.value(): 7.35
snapshotsTime: 7.3
Time = 7.4

DICPCG:  Solving for T, Initial residual = 0.0010780425, Final residual = 6.2762212e-07, No Iterations 4
DICPCG:  Solving for T, Initial residual = 6.2752265e-07, Final residual = 6.2752265e-07, No Iterations 0
DICPCG:  Solving for T, Initial residual = 6.2752265e-07, Final residual = 6.2752265e-07, No Iterations 0
ExecutionTime = 0.33 s  ClockTime = 0 s

Time = 7.45

DICPCG:  Solving for T, Initial residual = 0.0010696797, Final residual = 6.2231645e-07, No Iterations 4
DICPCG:  Solving for T, Initial residual = 6.2222015e-07, Final residual = 6.2222015e-07, No Iterations 0
DICPCG:  Solving for T, Initial residual = 6.2222015e-07, Final residual = 6.2222015e-07, No Iterations 0
ExecutionTime = 0.34 s  ClockTime = 0 s

runTime.value(): 7.45
snapshotsTime: 7.4
Time = 7.5

DICPCG:  Solving for T, Initial residual = 0.0010613884, Final residual = 6.1708099e-07, No Iterations 4
DICPCG:  Solving for T, Initial residual = 6.1698775e-07, Final residual = 6.1698775e-07, No Iterations 0
DICPCG:  Solving for T, Initial residual = 6.1698775e-07, Final residual = 6.1698775e-07, No Iterations 0
ExecutionTime = 0.34 s  ClockTime = 0 s

Time = 7.55

DICPCG:  Solving for T, Initial residual = 0.0010531678, Final residual = 6.1190998e-07, No Iterations 4
DICPCG:  Solving for T, Initial residual = 6.1181969e-07, Final residual = 6.1181969e-07, No Iterations 0
DICPCG:  Solving for T, Initial residual = 6.1181969e-07, Final residual = 6.1181969e-07, No Iterations 0
ExecutionTime = 0.34 s  ClockTime = 0 s

runTime.value(): 7.55
snapshotsTime: 7.5
Time = 7.6

DICPCG:  Solving for T, Initial residual = 0.001045017, Final residual = 6.0679988e-07, No Iterations 4
DICPCG:  Solving for T, Initial residual = 6.0671242e-07, Final residual = 6.0671242e-07, No Iterations 0
DICPCG:  Solving for T, Initial residual = 6.0671242e-07, Final residual = 6.0671242e-07, No Iterations 0
ExecutionTime = 0.34 s  ClockTime = 0 s

Time = 7.65

DICPCG:  Solving for T, Initial residual = 0.0010369351, Final residual = 6.0175089e-07, No Iterations 4
DICPCG:  Solving for T, Initial residual = 6.0166617e-07, Final residual = 6.0166617e-07, No Iterations 0
DICPCG:  Solving for T, Initial residual = 6.0166617e-07, Final residual = 6.0166617e-07, No Iterations 0
ExecutionTime = 0.35 s  ClockTime = 0 s

runTime.value(): 7.65
snapshotsTime: 7.6
Time = 7.7

DICPCG:  Solving for T, Initial residual = 0.0010289213, Final residual = 5.9676395e-07, No Iterations 4
DICPCG:  Solving for T, Initial residual = 5.9668188e-07, Final residual = 5.9668188e-07, No Iterations 0
DICPCG:  Solving for T, Initial residual = 5.9668188e-07, Final residual = 5.9668188e-07, No Iterations 0
ExecutionTime = 0.35 s  ClockTime = 0 s

Time = 7.75

DICPCG:  Solving for T, Initial residual = 0.0010209748, Final residual = 5.9183427e-07, No Iterations 4
DICPCG:  Solving for T, Initial residual = 5.9175474e-07, Final residual = 5.9175474e-07, No Iterations 0
DICPCG:  Solving for T, Initial residual = 5.9175474e-07, Final residual = 5.9175474e-07, No Iterations 0
ExecutionTime = 0.35 s  ClockTime = 0 s

runTime.value(): 7.75
snapshotsTime: 7.7
Time = 7.8

DICPCG:  Solving for T, Initial residual = 0.0010130948, Final residual = 5.8695872e-07, No Iterations 4
DICPCG:  Solving for T, Initial residual = 5.8688165e-07, Final residual = 5.8688165e-07, No Iterations 0
DICPCG:  Solving for T, Initial residual = 5.8688165e-07, Final residual = 5.8688165e-07, No Iterations 0
ExecutionTime = 0.35 s  ClockTime = 0 s

Time = 7.85

DICPCG:  Solving for T, Initial residual = 0.0010052805, Final residual = 5.821354e-07, No Iterations 4
DICPCG:  Solving for T, Initial residual = 5.820607e-07, Final residual = 5.820607e-07, No Iterations 0
DICPCG:  Solving for T, Initial residual = 5.820607e-07, Final residual = 5.820607e-07, No Iterations 0
ExecutionTime = 0.35 s  ClockTime = 0 s

runTime.value(): 7.85
snapshotsTime: 7.8
Time = 7.9

DICPCG:  Solving for T, Initial residual = 0.00099753121, Final residual = 5.7736465e-07, No Iterations 4
DICPCG:  Solving for T, Initial residual = 5.7729225e-07, Final residual = 5.7729225e-07, No Iterations 0
DICPCG:  Solving for T, Initial residual = 5.7729225e-07, Final residual = 5.7729225e-07, No Iterations 0
ExecutionTime = 0.36 s  ClockTime = 0 s

Time = 7.95

DICPCG:  Solving for T, Initial residual = 0.00098984609, Final residual = 5.7264559e-07, No Iterations 4
DICPCG:  Solving for T, Initial residual = 5.7257539e-07, Final residual = 5.7257539e-07, No Iterations 0
DICPCG:  Solving for T, Initial residual = 5.7257539e-07, Final residual = 5.7257539e-07, No Iterations 0
ExecutionTime = 0.36 s  ClockTime = 0 s

runTime.value(): 7.95
snapshotsTime: 7.9
Time = 8

DICPCG:  Solving for T, Initial residual = 0.00098222446, Final residual = 5.6797578e-07, No Iterations 4
DICPCG:  Solving for T, Initial residual = 5.6790771e-07, Final residual = 5.6790771e-07, No Iterations 0
DICPCG:  Solving for T, Initial residual = 5.6790771e-07, Final residual = 5.6790771e-07, No Iterations 0
ExecutionTime = 0.36 s  ClockTime = 0 s

Time = 8.05

DICPCG:  Solving for T, Initial residual = 0.00097466562, Final residual = 5.6335389e-07, No Iterations 4
DICPCG:  Solving for T, Initial residual = 5.6328788e-07, Final residual = 5.6328788e-07, No Iterations 0
DICPCG:  Solving for T, Initial residual = 5.6328788e-07, Final residual = 5.6328788e-07, No Iterations 0
ExecutionTime = 0.36 s  ClockTime = 0 s

runTime.value(): 8.05
snapshotsTime: 8
Time = 8.1

DICPCG:  Solving for T, Initial residual = 0.00096716886, Final residual = 5.5878062e-07, No Iterations 4
DICPCG:  Solving for T, Initial residual = 5.587166e-07, Final residual = 5.587166e-07, No Iterations 0
DICPCG:  Solving for T, Initial residual = 5.587166e-07, Final residual = 5.587166e-07, No Iterations 0
ExecutionTime = 0.36 s  ClockTime = 0 s

Time = 8.15

DICPCG:  Solving for T, Initial residual = 0.00095973351, Final residual = 5.5425373e-07, No Iterations 4
DICPCG:  Solving for T, Initial residual = 5.5419162e-07, Final residual = 5.5419162e-07, No Iterations 0
DICPCG:  Solving for T, Initial residual = 5.5419162e-07, Final residual = 5.5419162e-07, No Iterations 0
ExecutionTime = 0.36 s  ClockTime = 0 s

runTime.value(): 8.15
snapshotsTime: 8.1
Time = 8.2

DICPCG:  Solving for T, Initial residual = 0.0009523589, Final residual = 5.4977298e-07, No Iterations 4
DICPCG:  Solving for T, Initial residual = 5.4971273e-07, Final residual = 5.4971273e-07, No Iterations 0
DICPCG:  Solving for T, Initial residual = 5.4971273e-07, Final residual = 5.4971273e-07, No Iterations 0
ExecutionTime = 0.37 s  ClockTime = 0 s

Time = 8.25

DICPCG:  Solving for T, Initial residual = 0.00094504437, Final residual = 5.4533656e-07, No Iterations 4
DICPCG:  Solving for T, Initial residual = 5.452781e-07, Final residual = 5.452781e-07, No Iterations 0
DICPCG:  Solving for T, Initial residual = 5.452781e-07, Final residual = 5.452781e-07, No Iterations 0
ExecutionTime = 0.37 s  ClockTime = 0 s

runTime.value(): 8.25
snapshotsTime: 8.2
Time = 8.3

DICPCG:  Solving for T, Initial residual = 0.0009377893, Final residual = 5.4094333e-07, No Iterations 4
DICPCG:  Solving for T, Initial residual = 5.4088659e-07, Final residual = 5.4088659e-07, No Iterations 0
DICPCG:  Solving for T, Initial residual = 5.4088659e-07, Final residual = 5.4088659e-07, No Iterations 0
ExecutionTime = 0.37 s  ClockTime = 0 s

Time = 8.35

DICPCG:  Solving for T, Initial residual = 0.00093059305, Final residual = 5.3659471e-07, No Iterations 4
DICPCG:  Solving for T, Initial residual = 5.3653964e-07, Final residual = 5.3653964e-07, No Iterations 0
DICPCG:  Solving for T, Initial residual = 5.3653964e-07, Final residual = 5.3653964e-07, No Iterations 0
ExecutionTime = 0.37 s  ClockTime = 0 s

runTime.value(): 8.35
snapshotsTime: 8.3
Time = 8.4

DICPCG:  Solving for T, Initial residual = 0.000923455, Final residual = 5.3229048e-07, No Iterations 4
DICPCG:  Solving for T, Initial residual = 5.3223703e-07, Final residual = 5.3223703e-07, No Iterations 0
DICPCG:  Solving for T, Initial residual = 5.3223703e-07, Final residual = 5.3223703e-07, No Iterations 0
ExecutionTime = 0.38 s  ClockTime = 0 s

Time = 8.45

DICPCG:  Solving for T, Initial residual = 0.00091637456, Final residual = 5.280291e-07, No Iterations 4
DICPCG:  Solving for T, Initial residual = 5.2797721e-07, Final residual = 5.2797721e-07, No Iterations 0
DICPCG:  Solving for T, Initial residual = 5.2797721e-07, Final residual = 5.2797721e-07, No Iterations 0
ExecutionTime = 0.38 s  ClockTime = 0 s

runTime.value(): 8.45
snapshotsTime: 8.4
Time = 8.5

DICPCG:  Solving for T, Initial residual = 0.00090935114, Final residual = 5.238115e-07, No Iterations 4
DICPCG:  Solving for T, Initial residual = 5.2376111e-07, Final residual = 5.2376111e-07, No Iterations 0
DICPCG:  Solving for T, Initial residual = 5.2376111e-07, Final residual = 5.2376111e-07, No Iterations 0
ExecutionTime = 0.38 s  ClockTime = 0 s

runTime.value(): 8.5
snapshotsTime: 8.5
Time = 8.55

DICPCG:  Solving for T, Initial residual = 0.00090238414, Final residual = 5.1963664e-07, No Iterations 4
DICPCG:  Solving for T, Initial residual = 5.195877e-07, Final residual = 5.195877e-07, No Iterations 0
DICPCG:  Solving for T, Initial residual = 5.195877e-07, Final residual = 5.195877e-07, No Iterations 0
ExecutionTime = 0.38 s  ClockTime = 0 s

Time = 8.6

DICPCG:  Solving for T, Initial residual = 0.00089547302, Final residual = 5.1550407e-07, No Iterations 4
DICPCG:  Solving for T, Initial residual = 5.1545654e-07, Final residual = 5.1545654e-07, No Iterations 0
DICPCG:  Solving for T, Initial residual = 5.1545654e-07, Final residual = 5.1545654e-07, No Iterations 0
ExecutionTime = 0.38 s  ClockTime = 0 s

runTime.value(): 8.6
snapshotsTime: 8.6
Time = 8.65

DICPCG:  Solving for T, Initial residual = 0.00088861719, Final residual = 5.1141242e-07, No Iterations 4
DICPCG:  Solving for T, Initial residual = 5.1136625e-07, Final residual = 5.1136625e-07, No Iterations 0
DICPCG:  Solving for T, Initial residual = 5.1136625e-07, Final residual = 5.1136625e-07, No Iterations 0
ExecutionTime = 0.39 s  ClockTime = 0 s

Time = 8.7

DICPCG:  Solving for T, Initial residual = 0.00088181612, Final residual = 5.0736236e-07, No Iterations 4
DICPCG:  Solving for T, Initial residual = 5.073175e-07, Final residual = 5.073175e-07, No Iterations 0
DICPCG:  Solving for T, Initial residual = 5.073175e-07, Final residual = 5.073175e-07, No Iterations 0
ExecutionTime = 0.39 s  ClockTime = 0 s

runTime.value(): 8.7
snapshotsTime: 8.7
Time = 8.75

DICPCG:  Solving for T, Initial residual = 0.00087506927, Final residual = 5.0335e-07, No Iterations 4
DICPCG:  Solving for T, Initial residual = 5.0330641e-07, Final residual = 5.0330641e-07, No Iterations 0
DICPCG:  Solving for T, Initial residual = 5.0330641e-07, Final residual = 5.0330641e-07, No Iterations 0
ExecutionTime = 0.39 s  ClockTime = 0 s

Time = 8.8

DICPCG:  Solving for T, Initial residual = 0.00086837611, Final residual = 4.9937517e-07, No Iterations 4
DICPCG:  Solving for T, Initial residual = 4.9933282e-07, Final residual = 4.9933282e-07, No Iterations 0
DICPCG:  Solving for T, Initial residual = 4.9933282e-07, Final residual = 4.9933282e-07, No Iterations 0
ExecutionTime = 0.39 s  ClockTime = 0 s

runTime.value(): 8.8
snapshotsTime: 8.8
Time = 8.85

DICPCG:  Solving for T, Initial residual = 0.00086173611, Final residual = 4.9543739e-07, No Iterations 4
DICPCG:  Solving for T, Initial residual = 4.9539622e-07, Final residual = 4.9539622e-07, No Iterations 0
DICPCG:  Solving for T, Initial residual = 4.9539622e-07, Final residual = 4.9539622e-07, No Iterations 0
ExecutionTime = 0.39 s  ClockTime = 0 s

Time = 8.9

DICPCG:  Solving for T, Initial residual = 0.00085514876, Final residual = 4.9153569e-07, No Iterations 4
DICPCG:  Solving for T, Initial residual = 4.9149567e-07, Final residual = 4.9149567e-07, No Iterations 0
DICPCG:  Solving for T, Initial residual = 4.9149567e-07, Final residual = 4.9149567e-07, No Iterations 0
ExecutionTime = 0.39 s  ClockTime = 0 s

runTime.value(): 8.9
snapshotsTime: 8.9
Time = 8.95

DICPCG:  Solving for T, Initial residual = 0.00084861356, Final residual = 4.8766907e-07, No Iterations 4
DICPCG:  Solving for T, Initial residual = 4.8763016e-07, Final residual = 4.8763016e-07, No Iterations 0
DICPCG:  Solving for T, Initial residual = 4.8763016e-07, Final residual = 4.8763016e-07, No Iterations 0
ExecutionTime = 0.39 s  ClockTime = 0 s

Time = 9

DICPCG:  Solving for T, Initial residual = 0.00084213002, Final residual = 4.8383659e-07, No Iterations 4
DICPCG:  Solving for T, Initial residual = 4.8379875e-07, Final residual = 4.8379875e-07, No Iterations 0
DICPCG:  Solving for T, Initial residual = 4.8379875e-07, Final residual = 4.8379875e-07, No Iterations 0
ExecutionTime = 0.4 s  ClockTime = 0 s

runTime.value(): 9
snapshotsTime: 9
Time = 9.05

DICPCG:  Solving for T, Initial residual = 0.00083569764, Final residual = 4.8003803e-07, No Iterations 4
DICPCG:  Solving for T, Initial residual = 4.8000124e-07, Final residual = 4.8000124e-07, No Iterations 0
DICPCG:  Solving for T, Initial residual = 4.8000124e-07, Final residual = 4.8000124e-07, No Iterations 0
ExecutionTime = 0.4 s  ClockTime = 0 s

Time = 9.1

DICPCG:  Solving for T, Initial residual = 0.00082931594, Final residual = 4.7627352e-07, No Iterations 4
DICPCG:  Solving for T, Initial residual = 4.7623773e-07, Final residual = 4.7623773e-07, No Iterations 0
DICPCG:  Solving for T, Initial residual = 4.7623773e-07, Final residual = 4.7623773e-07, No Iterations 0
ExecutionTime = 0.4 s  ClockTime = 0 s

runTime.value(): 9.1
snapshotsTime: 9.1
Time = 9.15

DICPCG:  Solving for T, Initial residual = 0.00082298446, Final residual = 4.7254206e-07, No Iterations 4
DICPCG:  Solving for T, Initial residual = 4.7250725e-07, Final residual = 4.7250725e-07, No Iterations 0
DICPCG:  Solving for T, Initial residual = 4.7250725e-07, Final residual = 4.7250725e-07, No Iterations 0
ExecutionTime = 0.41 s  ClockTime = 0 s

Time = 9.2

DICPCG:  Solving for T, Initial residual = 0.00081669656, Final residual = 4.6884138e-07, No Iterations 4
DICPCG:  Solving for T, Initial residual = 4.6881105e-07, Final residual = 4.6881105e-07, No Iterations 0
DICPCG:  Solving for T, Initial residual = 4.6881105e-07, Final residual = 4.6881105e-07, No Iterations 0
ExecutionTime = 0.41 s  ClockTime = 0 s

runTime.value(): 9.2
snapshotsTime: 9.2
Time = 9.25

DICPCG:  Solving for T, Initial residual = 0.00081044523, Final residual = 4.6516536e-07, No Iterations 4
DICPCG:  Solving for T, Initial residual = 4.6514679e-07, Final residual = 4.6514679e-07, No Iterations 0
DICPCG:  Solving for T, Initial residual = 4.6514679e-07, Final residual = 4.6514679e-07, No Iterations 0
ExecutionTime = 0.41 s  ClockTime = 0 s

Time = 9.3

DICPCG:  Solving for T, Initial residual = 0.0008042432, Final residual = 4.6152163e-07, No Iterations 4
DICPCG:  Solving for T, Initial residual = 4.6150144e-07, Final residual = 4.6150144e-07, No Iterations 0
DICPCG:  Solving for T, Initial residual = 4.6150144e-07, Final residual = 4.6150144e-07, No Iterations 0
ExecutionTime = 0.41 s  ClockTime = 0 s

runTime.value(): 9.3
snapshotsTime: 9.3
Time = 9.35

DICPCG:  Solving for T, Initial residual = 0.00079807868, Final residual = 4.5790368e-07, No Iterations 4
DICPCG:  Solving for T, Initial residual = 4.5787994e-07, Final residual = 4.5787994e-07, No Iterations 0
DICPCG:  Solving for T, Initial residual = 4.5787994e-07, Final residual = 4.5787994e-07, No Iterations 0
ExecutionTime = 0.41 s  ClockTime = 0 s

Time = 9.4

DICPCG:  Solving for T, Initial residual = 0.00079195551, Final residual = 4.5431382e-07, No Iterations 4
DICPCG:  Solving for T, Initial residual = 4.542908e-07, Final residual = 4.542908e-07, No Iterations 0
DICPCG:  Solving for T, Initial residual = 4.542908e-07, Final residual = 4.542908e-07, No Iterations 0
ExecutionTime = 0.42 s  ClockTime = 0 s

runTime.value(): 9.4
snapshotsTime: 9.4
Time = 9.45

DICPCG:  Solving for T, Initial residual = 0.00078588072, Final residual = 4.5075648e-07, No Iterations 4
DICPCG:  Solving for T, Initial residual = 4.5073417e-07, Final residual = 4.5073417e-07, No Iterations 0
DICPCG:  Solving for T, Initial residual = 4.5073417e-07, Final residual = 4.5073417e-07, No Iterations 0
ExecutionTime = 0.42 s  ClockTime = 0 s

Time = 9.5

DICPCG:  Solving for T, Initial residual = 0.00077985387, Final residual = 4.4722972e-07, No Iterations 4
DICPCG:  Solving for T, Initial residual = 4.4720808e-07, Final residual = 4.4720808e-07, No Iterations 0
DICPCG:  Solving for T, Initial residual = 4.4720808e-07, Final residual = 4.4720808e-07, No Iterations 0
ExecutionTime = 0.42 s  ClockTime = 0 s

runTime.value(): 9.5
snapshotsTime: 9.5
Time = 9.55

DICPCG:  Solving for T, Initial residual = 0.00077387453, Final residual = 4.4373317e-07, No Iterations 4
DICPCG:  Solving for T, Initial residual = 4.4371218e-07, Final residual = 4.4371218e-07, No Iterations 0
DICPCG:  Solving for T, Initial residual = 4.4371218e-07, Final residual = 4.4371218e-07, No Iterations 0
ExecutionTime = 0.42 s  ClockTime = 0 s

Time = 9.6

DICPCG:  Solving for T, Initial residual = 0.00076794226, Final residual = 4.402663e-07, No Iterations 4
DICPCG:  Solving for T, Initial residual = 4.4024594e-07, Final residual = 4.4024594e-07, No Iterations 0
DICPCG:  Solving for T, Initial residual = 4.4024594e-07, Final residual = 4.4024594e-07, No Iterations 0
ExecutionTime = 0.43 s  ClockTime = 0 s

runTime.value(): 9.6
snapshotsTime: 9.6
Time = 9.65

DICPCG:  Solving for T, Initial residual = 0.00076205664, Final residual = 4.3682881e-07, No Iterations 4
DICPCG:  Solving for T, Initial residual = 4.3680906e-07, Final residual = 4.3680906e-07, No Iterations 0
DICPCG:  Solving for T, Initial residual = 4.3680906e-07, Final residual = 4.3680906e-07, No Iterations 0
ExecutionTime = 0.43 s  ClockTime = 0 s

Time = 9.7

DICPCG:  Solving for T, Initial residual = 0.00075621725, Final residual = 4.3342089e-07, No Iterations 4
DICPCG:  Solving for T, Initial residual = 4.3340173e-07, Final residual = 4.3340173e-07, No Iterations 0
DICPCG:  Solving for T, Initial residual = 4.3340173e-07, Final residual = 4.3340173e-07, No Iterations 0
ExecutionTime = 0.43 s  ClockTime = 0 s

runTime.value(): 9.7
snapshotsTime: 9.7
Time = 9.75

DICPCG:  Solving for T, Initial residual = 0.00075042369, Final residual = 4.3004194e-07, No Iterations 4
DICPCG:  Solving for T, Initial residual = 4.3002335e-07, Final residual = 4.3002335e-07, No Iterations 0
DICPCG:  Solving for T, Initial residual = 4.3002335e-07, Final residual = 4.3002335e-07, No Iterations 0
ExecutionTime = 0.43 s  ClockTime = 0 s

Time = 9.8

DICPCG:  Solving for T, Initial residual = 0.00074467554, Final residual = 4.2669133e-07, No Iterations 4
DICPCG:  Solving for T, Initial residual = 4.2667329e-07, Final residual = 4.2667329e-07, No Iterations 0
DICPCG:  Solving for T, Initial residual = 4.2667329e-07, Final residual = 4.2667329e-07, No Iterations 0
ExecutionTime = 0.43 s  ClockTime = 0 s

runTime.value(): 9.8
snapshotsTime: 9.8
Time = 9.85

DICPCG:  Solving for T, Initial residual = 0.00073897241, Final residual = 4.2336909e-07, No Iterations 4
DICPCG:  Solving for T, Initial residual = 4.2335158e-07, Final residual = 4.2335158e-07, No Iterations 0
DICPCG:  Solving for T, Initial residual = 4.2335158e-07, Final residual = 4.2335158e-07, No Iterations 0
ExecutionTime = 0.44 s  ClockTime = 0 s

Time = 9.9

DICPCG:  Solving for T, Initial residual = 0.0007333139, Final residual = 4.2007498e-07, No Iterations 4
DICPCG:  Solving for T, Initial residual = 4.2005798e-07, Final residual = 4.2005798e-07, No Iterations 0
DICPCG:  Solving for T, Initial residual = 4.2005798e-07, Final residual = 4.2005798e-07, No Iterations 0
ExecutionTime = 0.44 s  ClockTime = 0 s

runTime.value(): 9.9
snapshotsTime: 9.9
Time = 9.95

DICPCG:  Solving for T, Initial residual = 0.00072769962, Final residual = 4.1680869e-07, No Iterations 4
DICPCG:  Solving for T, Initial residual = 4.1679218e-07, Final residual = 4.1679218e-07, No Iterations 0
DICPCG:  Solving for T, Initial residual = 4.1679218e-07, Final residual = 4.1679218e-07, No Iterations 0
ExecutionTime = 0.44 s  ClockTime = 0 s

Time = 10

DICPCG:  Solving for T, Initial residual = 0.00072212919, Final residual = 4.1357063e-07, No Iterations 4
DICPCG:  Solving for T, Initial residual = 4.1355459e-07, Final residual = 4.1355459e-07, No Iterations 0
DICPCG:  Solving for T, Initial residual = 4.1355459e-07, Final residual = 4.1355459e-07, No Iterations 0
ExecutionTime = 0.47 s  ClockTime = 0 s

runTime.value(): 10
snapshotsTime: 10
Time = 10.05

DICPCG:  Solving for T, Initial residual = 0.00071660222, Final residual = 4.1036167e-07, No Iterations 4
DICPCG:  Solving for T, Initial residual = 4.103461e-07, Final residual = 4.103461e-07, No Iterations 0
DICPCG:  Solving for T, Initial residual = 4.103461e-07, Final residual = 4.103461e-07, No Iterations 0
ExecutionTime = 0.47 s  ClockTime = 0 s

Time = 10.1

DICPCG:  Solving for T, Initial residual = 0.00071111835, Final residual = 4.0718059e-07, No Iterations 4
[...]
DICPCG:  Solving for T, Initial residual = 1.6539878e-07, Final residual = 1.6539878e-07, No Iterations 0
DICPCG:  Solving for T, Initial residual = 1.6539878e-07, Final residual = 1.6539878e-07, No Iterations 0
ExecutionTime = 2.01 s  ClockTime = 2 s

Time = 47.55

DICPCG:  Solving for T, Initial residual = 2.2677695e-06, Final residual = 1.6413433e-07, No Iterations 1
DICPCG:  Solving for T, Initial residual = 1.6413433e-07, Final residual = 1.6413433e-07, No Iterations 0
DICPCG:  Solving for T, Initial residual = 1.6413433e-07, Final residual = 1.6413433e-07, No Iterations 0
ExecutionTime = 2.01 s  ClockTime = 2 s

runTime.value(): 47.55
snapshotsTime: 47.5
Time = 47.6

DICPCG:  Solving for T, Initial residual = 2.2504251e-06, Final residual = 1.6287848e-07, No Iterations 1
DICPCG:  Solving for T, Initial residual = 1.6287848e-07, Final residual = 1.6287848e-07, No Iterations 0
DICPCG:  Solving for T, Initial residual = 1.6287848e-07, Final residual = 1.6287848e-07, No Iterations 0
ExecutionTime = 2.02 s  ClockTime = 2 s

Time = 47.65

DICPCG:  Solving for T, Initial residual = 2.2332135e-06, Final residual = 1.6163325e-07, No Iterations 1
DICPCG:  Solving for T, Initial residual = 1.6163325e-07, Final residual = 1.6163325e-07, No Iterations 0
DICPCG:  Solving for T, Initial residual = 1.6163325e-07, Final residual = 1.6163325e-07, No Iterations 0
ExecutionTime = 2.02 s  ClockTime = 2 s

runTime.value(): 47.65
snapshotsTime: 47.6
Time = 47.7

DICPCG:  Solving for T, Initial residual = 2.2161335e-06, Final residual = 1.6039658e-07, No Iterations 1
DICPCG:  Solving for T, Initial residual = 1.6039658e-07, Final residual = 1.6039658e-07, No Iterations 0
DICPCG:  Solving for T, Initial residual = 1.6039658e-07, Final residual = 1.6039658e-07, No Iterations 0
ExecutionTime = 2.02 s  ClockTime = 2 s

Time = 47.75

DICPCG:  Solving for T, Initial residual = 2.1991841e-06, Final residual = 1.5917028e-07, No Iterations 1
DICPCG:  Solving for T, Initial residual = 1.5917028e-07, Final residual = 1.5917028e-07, No Iterations 0
DICPCG:  Solving for T, Initial residual = 1.5917028e-07, Final residual = 1.5917028e-07, No Iterations 0
ExecutionTime = 2.02 s  ClockTime = 2 s

runTime.value(): 47.75
snapshotsTime: 47.7
Time = 47.8

DICPCG:  Solving for T, Initial residual = 2.1823643e-06, Final residual = 1.579525e-07, No Iterations 1
DICPCG:  Solving for T, Initial residual = 1.579525e-07, Final residual = 1.579525e-07, No Iterations 0
DICPCG:  Solving for T, Initial residual = 1.579525e-07, Final residual = 1.579525e-07, No Iterations 0
ExecutionTime = 2.02 s  ClockTime = 2 s

Time = 47.85

DICPCG:  Solving for T, Initial residual = 2.1656732e-06, Final residual = 1.5674485e-07, No Iterations 1
DICPCG:  Solving for T, Initial residual = 1.5674485e-07, Final residual = 1.5674485e-07, No Iterations 0
DICPCG:  Solving for T, Initial residual = 1.5674485e-07, Final residual = 1.5674485e-07, No Iterations 0
ExecutionTime = 2.03 s  ClockTime = 2 s

runTime.value(): 47.85
snapshotsTime: 47.8
Time = 47.9

DICPCG:  Solving for T, Initial residual = 2.1491097e-06, Final residual = 1.5554565e-07, No Iterations 1
DICPCG:  Solving for T, Initial residual = 1.5554565e-07, Final residual = 1.5554565e-07, No Iterations 0
DICPCG:  Solving for T, Initial residual = 1.5554565e-07, Final residual = 1.5554565e-07, No Iterations 0
ExecutionTime = 2.03 s  ClockTime = 2 s

Time = 47.95

DICPCG:  Solving for T, Initial residual = 2.1326729e-06, Final residual = 1.5435637e-07, No Iterations 1
DICPCG:  Solving for T, Initial residual = 1.5435637e-07, Final residual = 1.5435637e-07, No Iterations 0
DICPCG:  Solving for T, Initial residual = 1.5435637e-07, Final residual = 1.5435637e-07, No Iterations 0
ExecutionTime = 2.03 s  ClockTime = 2 s

runTime.value(): 47.95
snapshotsTime: 47.9
Time = 48

DICPCG:  Solving for T, Initial residual = 2.1163618e-06, Final residual = 1.5317548e-07, No Iterations 1
DICPCG:  Solving for T, Initial residual = 1.5317548e-07, Final residual = 1.5317548e-07, No Iterations 0
DICPCG:  Solving for T, Initial residual = 1.5317548e-07, Final residual = 1.5317548e-07, No Iterations 0
ExecutionTime = 2.03 s  ClockTime = 2 s

Time = 48.05

DICPCG:  Solving for T, Initial residual = 2.1001755e-06, Final residual = 1.520043e-07, No Iterations 1
DICPCG:  Solving for T, Initial residual = 1.520043e-07, Final residual = 1.520043e-07, No Iterations 0
DICPCG:  Solving for T, Initial residual = 1.520043e-07, Final residual = 1.520043e-07, No Iterations 0
ExecutionTime = 2.03 s  ClockTime = 2 s

runTime.value(): 48.05
snapshotsTime: 48
Time = 48.1

DICPCG:  Solving for T, Initial residual = 2.084113e-06, Final residual = 1.5084143e-07, No Iterations 1
DICPCG:  Solving for T, Initial residual = 1.5084143e-07, Final residual = 1.5084143e-07, No Iterations 0
DICPCG:  Solving for T, Initial residual = 1.5084143e-07, Final residual = 1.5084143e-07, No Iterations 0
ExecutionTime = 2.03 s  ClockTime = 2 s

Time = 48.15

DICPCG:  Solving for T, Initial residual = 2.0681733e-06, Final residual = 1.4968806e-07, No Iterations 1
DICPCG:  Solving for T, Initial residual = 1.4968806e-07, Final residual = 1.4968806e-07, No Iterations 0
DICPCG:  Solving for T, Initial residual = 1.4968806e-07, Final residual = 1.4968806e-07, No Iterations 0
ExecutionTime = 2.04 s  ClockTime = 2 s

runTime.value(): 48.15
snapshotsTime: 48.1
Time = 48.2

DICPCG:  Solving for T, Initial residual = 2.0523555e-06, Final residual = 1.4854294e-07, No Iterations 1
DICPCG:  Solving for T, Initial residual = 1.4854294e-07, Final residual = 1.4854294e-07, No Iterations 0
DICPCG:  Solving for T, Initial residual = 1.4854294e-07, Final residual = 1.4854294e-07, No Iterations 0
ExecutionTime = 2.04 s  ClockTime = 2 s

Time = 48.25

DICPCG:  Solving for T, Initial residual = 2.0366587e-06, Final residual = 1.4740712e-07, No Iterations 1
DICPCG:  Solving for T, Initial residual = 1.4740712e-07, Final residual = 1.4740712e-07, No Iterations 0
DICPCG:  Solving for T, Initial residual = 1.4740712e-07, Final residual = 1.4740712e-07, No Iterations 0
ExecutionTime = 2.04 s  ClockTime = 2 s

runTime.value(): 48.25
snapshotsTime: 48.2
Time = 48.3

DICPCG:  Solving for T, Initial residual = 2.021082e-06, Final residual = 1.4627947e-07, No Iterations 1
DICPCG:  Solving for T, Initial residual = 1.4627947e-07, Final residual = 1.4627947e-07, No Iterations 0
DICPCG:  Solving for T, Initial residual = 1.4627947e-07, Final residual = 1.4627947e-07, No Iterations 0
ExecutionTime = 2.04 s  ClockTime = 2 s

Time = 48.35

DICPCG:  Solving for T, Initial residual = 2.0056244e-06, Final residual = 1.4516094e-07, No Iterations 1
DICPCG:  Solving for T, Initial residual = 1.4516094e-07, Final residual = 1.4516094e-07, No Iterations 0
DICPCG:  Solving for T, Initial residual = 1.4516094e-07, Final residual = 1.4516094e-07, No Iterations 0
ExecutionTime = 2.04 s  ClockTime = 2 s

runTime.value(): 48.35
snapshotsTime: 48.3
Time = 48.4

DICPCG:  Solving for T, Initial residual = 1.990285e-06, Final residual = 1.4405049e-07, No Iterations 1
DICPCG:  Solving for T, Initial residual = 1.4405049e-07, Final residual = 1.4405049e-07, No Iterations 0
DICPCG:  Solving for T, Initial residual = 1.4405049e-07, Final residual = 1.4405049e-07, No Iterations 0
ExecutionTime = 2.05 s  ClockTime = 2 s

Time = 48.45

DICPCG:  Solving for T, Initial residual = 1.9750629e-06, Final residual = 1.4294898e-07, No Iterations 1
DICPCG:  Solving for T, Initial residual = 1.4294898e-07, Final residual = 1.4294898e-07, No Iterations 0
DICPCG:  Solving for T, Initial residual = 1.4294898e-07, Final residual = 1.4294898e-07, No Iterations 0
ExecutionTime = 2.05 s  ClockTime = 2 s

runTime.value(): 48.45
snapshotsTime: 48.4
Time = 48.5

DICPCG:  Solving for T, Initial residual = 1.9599573e-06, Final residual = 1.4185548e-07, No Iterations 1
DICPCG:  Solving for T, Initial residual = 1.4185548e-07, Final residual = 1.4185548e-07, No Iterations 0
DICPCG:  Solving for T, Initial residual = 1.4185548e-07, Final residual = 1.4185548e-07, No Iterations 0
ExecutionTime = 2.05 s  ClockTime = 2 s

Time = 48.55

DICPCG:  Solving for T, Initial residual = 1.9449672e-06, Final residual = 1.4077074e-07, No Iterations 1
DICPCG:  Solving for T, Initial residual = 1.4077074e-07, Final residual = 1.4077074e-07, No Iterations 0
DICPCG:  Solving for T, Initial residual = 1.4077074e-07, Final residual = 1.4077074e-07, No Iterations 0
ExecutionTime = 2.05 s  ClockTime = 2 s

runTime.value(): 48.55
snapshotsTime: 48.5
Time = 48.6

DICPCG:  Solving for T, Initial residual = 1.9300917e-06, Final residual = 1.3969391e-07, No Iterations 1
DICPCG:  Solving for T, Initial residual = 1.3969391e-07, Final residual = 1.3969391e-07, No Iterations 0
DICPCG:  Solving for T, Initial residual = 1.3969391e-07, Final residual = 1.3969391e-07, No Iterations 0
ExecutionTime = 2.05 s  ClockTime = 2 s

Time = 48.65

DICPCG:  Solving for T, Initial residual = 1.91533e-06, Final residual = 1.3862568e-07, No Iterations 1
DICPCG:  Solving for T, Initial residual = 1.3862568e-07, Final residual = 1.3862568e-07, No Iterations 0
DICPCG:  Solving for T, Initial residual = 1.3862568e-07, Final residual = 1.3862568e-07, No Iterations 0
ExecutionTime = 2.05 s  ClockTime = 2 s

runTime.value(): 48.65
snapshotsTime: 48.6
Time = 48.7

DICPCG:  Solving for T, Initial residual = 1.9006812e-06, Final residual = 1.3756528e-07, No Iterations 1
DICPCG:  Solving for T, Initial residual = 1.3756528e-07, Final residual = 1.3756528e-07, No Iterations 0
DICPCG:  Solving for T, Initial residual = 1.3756528e-07, Final residual = 1.3756528e-07, No Iterations 0
ExecutionTime = 2.06 s  ClockTime = 2 s

Time = 48.75

DICPCG:  Solving for T, Initial residual = 1.8861444e-06, Final residual = 1.3651331e-07, No Iterations 1
DICPCG:  Solving for T, Initial residual = 1.3651331e-07, Final residual = 1.3651331e-07, No Iterations 0
DICPCG:  Solving for T, Initial residual = 1.3651331e-07, Final residual = 1.3651331e-07, No Iterations 0
ExecutionTime = 2.06 s  ClockTime = 2 s

runTime.value(): 48.75
snapshotsTime: 48.7
Time = 48.8

DICPCG:  Solving for T, Initial residual = 1.8717189e-06, Final residual = 1.3546908e-07, No Iterations 1
DICPCG:  Solving for T, Initial residual = 1.3546908e-07, Final residual = 1.3546908e-07, No Iterations 0
DICPCG:  Solving for T, Initial residual = 1.3546908e-07, Final residual = 1.3546908e-07, No Iterations 0
ExecutionTime = 2.06 s  ClockTime = 2 s

Time = 48.85

DICPCG:  Solving for T, Initial residual = 1.8574036e-06, Final residual = 1.3443314e-07, No Iterations 1
DICPCG:  Solving for T, Initial residual = 1.3443314e-07, Final residual = 1.3443314e-07, No Iterations 0
DICPCG:  Solving for T, Initial residual = 1.3443314e-07, Final residual = 1.3443314e-07, No Iterations 0
ExecutionTime = 2.06 s  ClockTime = 2 s

runTime.value(): 48.85
snapshotsTime: 48.8
Time = 48.9

DICPCG:  Solving for T, Initial residual = 1.8431979e-06, Final residual = 1.3340483e-07, No Iterations 1
DICPCG:  Solving for T, Initial residual = 1.3340483e-07, Final residual = 1.3340483e-07, No Iterations 0
DICPCG:  Solving for T, Initial residual = 1.3340483e-07, Final residual = 1.3340483e-07, No Iterations 0
ExecutionTime = 2.06 s  ClockTime = 2 s

Time = 48.95

DICPCG:  Solving for T, Initial residual = 1.8291007e-06, Final residual = 1.3238465e-07, No Iterations 1
DICPCG:  Solving for T, Initial residual = 1.3238465e-07, Final residual = 1.3238465e-07, No Iterations 0
DICPCG:  Solving for T, Initial residual = 1.3238465e-07, Final residual = 1.3238465e-07, No Iterations 0
ExecutionTime = 2.07 s  ClockTime = 2 s

runTime.value(): 48.95
snapshotsTime: 48.9
Time = 49

DICPCG:  Solving for T, Initial residual = 1.8151114e-06, Final residual = 1.3137203e-07, No Iterations 1
DICPCG:  Solving for T, Initial residual = 1.3137203e-07, Final residual = 1.3137203e-07, No Iterations 0
DICPCG:  Solving for T, Initial residual = 1.3137203e-07, Final residual = 1.3137203e-07, No Iterations 0
ExecutionTime = 2.07 s  ClockTime = 2 s

Time = 49.05

DICPCG:  Solving for T, Initial residual = 1.8012291e-06, Final residual = 1.3036739e-07, No Iterations 1
DICPCG:  Solving for T, Initial residual = 1.3036739e-07, Final residual = 1.3036739e-07, No Iterations 0
DICPCG:  Solving for T, Initial residual = 1.3036739e-07, Final residual = 1.3036739e-07, No Iterations 0
ExecutionTime = 2.07 s  ClockTime = 2 s

runTime.value(): 49.05
snapshotsTime: 49
Time = 49.1

DICPCG:  Solving for T, Initial residual = 1.787453e-06, Final residual = 1.293702e-07, No Iterations 1
DICPCG:  Solving for T, Initial residual = 1.293702e-07, Final residual = 1.293702e-07, No Iterations 0
DICPCG:  Solving for T, Initial residual = 1.293702e-07, Final residual = 1.293702e-07, No Iterations 0
ExecutionTime = 2.07 s  ClockTime = 2 s

Time = 49.15

DICPCG:  Solving for T, Initial residual = 1.7737822e-06, Final residual = 1.2838086e-07, No Iterations 1
DICPCG:  Solving for T, Initial residual = 1.2838086e-07, Final residual = 1.2838086e-07, No Iterations 0
DICPCG:  Solving for T, Initial residual = 1.2838086e-07, Final residual = 1.2838086e-07, No Iterations 0
ExecutionTime = 2.07 s  ClockTime = 2 s

runTime.value(): 49.15
snapshotsTime: 49.1
Time = 49.2

DICPCG:  Solving for T, Initial residual = 1.760216e-06, Final residual = 1.2739888e-07, No Iterations 1
DICPCG:  Solving for T, Initial residual = 1.2739888e-07, Final residual = 1.2739888e-07, No Iterations 0
DICPCG:  Solving for T, Initial residual = 1.2739888e-07, Final residual = 1.2739888e-07, No Iterations 0
ExecutionTime = 2.07 s  ClockTime = 2 s

Time = 49.25

DICPCG:  Solving for T, Initial residual = 1.7467536e-06, Final residual = 1.2642461e-07, No Iterations 1
DICPCG:  Solving for T, Initial residual = 1.2642461e-07, Final residual = 1.2642461e-07, No Iterations 0
DICPCG:  Solving for T, Initial residual = 1.2642461e-07, Final residual = 1.2642461e-07, No Iterations 0
ExecutionTime = 2.08 s  ClockTime = 2 s

runTime.value(): 49.25
snapshotsTime: 49.2
Time = 49.3

DICPCG:  Solving for T, Initial residual = 1.7333941e-06, Final residual = 1.254576e-07, No Iterations 1
DICPCG:  Solving for T, Initial residual = 1.254576e-07, Final residual = 1.254576e-07, No Iterations 0
DICPCG:  Solving for T, Initial residual = 1.254576e-07, Final residual = 1.254576e-07, No Iterations 0
ExecutionTime = 2.08 s  ClockTime = 2 s

Time = 49.35

DICPCG:  Solving for T, Initial residual = 1.7201367e-06, Final residual = 1.2449816e-07, No Iterations 1
DICPCG:  Solving for T, Initial residual = 1.2449816e-07, Final residual = 1.2449816e-07, No Iterations 0
DICPCG:  Solving for T, Initial residual = 1.2449816e-07, Final residual = 1.2449816e-07, No Iterations 0
ExecutionTime = 2.08 s  ClockTime = 2 s

runTime.value(): 49.35
snapshotsTime: 49.3
Time = 49.4

DICPCG:  Solving for T, Initial residual = 1.7069808e-06, Final residual = 1.2354589e-07, No Iterations 1
DICPCG:  Solving for T, Initial residual = 1.2354589e-07, Final residual = 1.2354589e-07, No Iterations 0
DICPCG:  Solving for T, Initial residual = 1.2354589e-07, Final residual = 1.2354589e-07, No Iterations 0
ExecutionTime = 2.08 s  ClockTime = 2 s

Time = 49.45

DICPCG:  Solving for T, Initial residual = 1.6939255e-06, Final residual = 1.2260107e-07, No Iterations 1
DICPCG:  Solving for T, Initial residual = 1.2260107e-07, Final residual = 1.2260107e-07, No Iterations 0
DICPCG:  Solving for T, Initial residual = 1.2260107e-07, Final residual = 1.2260107e-07, No Iterations 0
ExecutionTime = 2.08 s  ClockTime = 2 s

runTime.value(): 49.45
snapshotsTime: 49.4
Time = 49.5

DICPCG:  Solving for T, Initial residual = 1.6809701e-06, Final residual = 1.2166332e-07, No Iterations 1
DICPCG:  Solving for T, Initial residual = 1.2166332e-07, Final residual = 1.2166332e-07, No Iterations 0
DICPCG:  Solving for T, Initial residual = 1.2166332e-07, Final residual = 1.2166332e-07, No Iterations 0
ExecutionTime = 2.09 s  ClockTime = 2 s

Time = 49.55

DICPCG:  Solving for T, Initial residual = 1.6681137e-06, Final residual = 1.2073289e-07, No Iterations 1
DICPCG:  Solving for T, Initial residual = 1.2073289e-07, Final residual = 1.2073289e-07, No Iterations 0
DICPCG:  Solving for T, Initial residual = 1.2073289e-07, Final residual = 1.2073289e-07, No Iterations 0
ExecutionTime = 2.09 s  ClockTime = 2 s

runTime.value(): 49.55
snapshotsTime: 49.5
Time = 49.6

DICPCG:  Solving for T, Initial residual = 1.6553556e-06, Final residual = 1.1980943e-07, No Iterations 1
DICPCG:  Solving for T, Initial residual = 1.1980943e-07, Final residual = 1.1980943e-07, No Iterations 0
DICPCG:  Solving for T, Initial residual = 1.1980943e-07, Final residual = 1.1980943e-07, No Iterations 0
ExecutionTime = 2.09 s  ClockTime = 2 s

Time = 49.65

DICPCG:  Solving for T, Initial residual = 1.6426952e-06, Final residual = 1.1889317e-07, No Iterations 1
DICPCG:  Solving for T, Initial residual = 1.1889317e-07, Final residual = 1.1889317e-07, No Iterations 0
DICPCG:  Solving for T, Initial residual = 1.1889317e-07, Final residual = 1.1889317e-07, No Iterations 0
ExecutionTime = 2.09 s  ClockTime = 2 s

runTime.value(): 49.65
snapshotsTime: 49.6
Time = 49.7

DICPCG:  Solving for T, Initial residual = 1.6301315e-06, Final residual = 1.1798379e-07, No Iterations 1
DICPCG:  Solving for T, Initial residual = 1.1798379e-07, Final residual = 1.1798379e-07, No Iterations 0
DICPCG:  Solving for T, Initial residual = 1.1798379e-07, Final residual = 1.1798379e-07, No Iterations 0
ExecutionTime = 2.09 s  ClockTime = 2 s

Time = 49.75

DICPCG:  Solving for T, Initial residual = 1.617664e-06, Final residual = 1.1708149e-07, No Iterations 1
DICPCG:  Solving for T, Initial residual = 1.1708149e-07, Final residual = 1.1708149e-07, No Iterations 0
DICPCG:  Solving for T, Initial residual = 1.1708149e-07, Final residual = 1.1708149e-07, No Iterations 0
ExecutionTime = 2.09 s  ClockTime = 2 s

runTime.value(): 49.75
snapshotsTime: 49.7
Time = 49.8

DICPCG:  Solving for T, Initial residual = 1.6052918e-06, Final residual = 1.1618597e-07, No Iterations 1
DICPCG:  Solving for T, Initial residual = 1.1618597e-07, Final residual = 1.1618597e-07, No Iterations 0
DICPCG:  Solving for T, Initial residual = 1.1618597e-07, Final residual = 1.1618597e-07, No Iterations 0
ExecutionTime = 2.1 s  ClockTime = 2 s

Time = 49.85

DICPCG:  Solving for T, Initial residual = 1.5930142e-06, Final residual = 1.1529741e-07, No Iterations 1
DICPCG:  Solving for T, Initial residual = 1.1529741e-07, Final residual = 1.1529741e-07, No Iterations 0
DICPCG:  Solving for T, Initial residual = 1.1529741e-07, Final residual = 1.1529741e-07, No Iterations 0
ExecutionTime = 2.1 s  ClockTime = 2 s

runTime.value(): 49.85
snapshotsTime: 49.8
Time = 49.9

DICPCG:  Solving for T, Initial residual = 1.5808306e-06, Final residual = 1.1441555e-07, No Iterations 1
DICPCG:  Solving for T, Initial residual = 1.1441555e-07, Final residual = 1.1441555e-07, No Iterations 0
DICPCG:  Solving for T, Initial residual = 1.1441555e-07, Final residual = 1.1441555e-07, No Iterations 0
ExecutionTime = 2.1 s  ClockTime = 2 s

Time = 49.95

DICPCG:  Solving for T, Initial residual = 1.5687401e-06, Final residual = 1.1354052e-07, No Iterations 1
DICPCG:  Solving for T, Initial residual = 1.1354052e-07, Final residual = 1.1354052e-07, No Iterations 0
DICPCG:  Solving for T, Initial residual = 1.1354052e-07, Final residual = 1.1354052e-07, No Iterations 0
ExecutionTime = 2.1 s  ClockTime = 2 s

runTime.value(): 49.95
snapshotsTime: 49.9
Time = 50

DICPCG:  Solving for T, Initial residual = 1.5567421e-06, Final residual = 1.126721e-07, No Iterations 1
DICPCG:  Solving for T, Initial residual = 1.126721e-07, Final residual = 1.126721e-07, No Iterations 0
DICPCG:  Solving for T, Initial residual = 1.126721e-07, Final residual = 1.126721e-07, No Iterations 0
ExecutionTime = 2.13 s  ClockTime = 2 s

End

snapshots number is: 500
snapshotsTime is: 50
