/*---------------------------------------------------------------------------*\
| =========                 |                                                 |
| \\      /  F ield         | OpenFOAM: The Open Source CFD Toolbox           |
|  \\    /   O peration     | Version:  v2106                                 |
|   \\  /    A nd           | Website:  www.openfoam.com                      |
|    \\/     M anipulation  |                                                 |
\*---------------------------------------------------------------------------*/
Build  : _c15bfde3cb-20210624 OPENFOAM=2106
Arch   : "LSB;label=32;scalar=64"
Exec   : laplacianFoamDiscGalk
Date   : Nov 06 2022
Time   : 10:27:24
Host   : Sh-Ruan-matebook
PID    : 6384
I/O    : uncollated
Case   : /home/shenhui_ruan/gitFolder/RshOpenFOAMSourceCode/ROM_Discontinuity_Galerkin/Blocks_moreSubdomains_2
nProcs : 1
trapFpe: Floating point exception trapping enabled (FOAM_SIGFPE).
fileModificationChecking : Monitoring run-time modified files using timeStampMaster (fileModificationSkew 5, maxFileModificationPolls 20)
allowSystemOperations : Allowing user-supplied system call operations

// * * * * * * * * * * * * * * * * * * * * * * * * * * * * * * * * * * * * * //
Create time

Create mesh for time = 0


SIMPLE: no convergence criteria found. Calculations will run for 100 steps.

Reading field T

Reading diffusivity DT

No finite volume options present

Calculating temperature distribution

Time = 0.05

DICPCG:  Solving for T, Initial residual = 1, Final residual = 9.3522845e-07, No Iterations 89
DICPCG:  Solving for T, Initial residual = 4.4780774e-07, Final residual = 4.4780774e-07, No Iterations 0
DICPCG:  Solving for T, Initial residual = 4.4780774e-07, Final residual = 4.4780774e-07, No Iterations 0
ExecutionTime = 0.12 s  ClockTime = 0 s

Time = 0.1

DICPCG:  Solving for T, Initial residual = 0.021131972, Final residual = 9.0575904e-07, No Iterations 79
DICPCG:  Solving for T, Initial residual = 8.8192876e-07, Final residual = 8.8192876e-07, No Iterations 0
DICPCG:  Solving for T, Initial residual = 8.8192876e-07, Final residual = 8.8192876e-07, No Iterations 0
ExecutionTime = 0.15 s  ClockTime = 0 s

Time = 0.15

DICPCG:  Solving for T, Initial residual = 0.010245069, Final residual = 9.3431751e-07, No Iterations 72
DICPCG:  Solving for T, Initial residual = 9.1981352e-07, Final residual = 9.1981352e-07, No Iterations 0
DICPCG:  Solving for T, Initial residual = 9.1981352e-07, Final residual = 9.1981352e-07, No Iterations 0
ExecutionTime = 0.18 s  ClockTime = 0 s

Time = 0.2

DICPCG:  Solving for T, Initial residual = 0.007530638, Final residual = 8.7022801e-07, No Iterations 69
DICPCG:  Solving for T, Initial residual = 8.6076798e-07, Final residual = 8.6076798e-07, No Iterations 0
DICPCG:  Solving for T, Initial residual = 8.6076798e-07, Final residual = 8.6076798e-07, No Iterations 0
ExecutionTime = 0.21 s  ClockTime = 0 s

Time = 0.25

DICPCG:  Solving for T, Initial residual = 0.0061897971, Final residual = 9.5807731e-07, No Iterations 65
DICPCG:  Solving for T, Initial residual = 9.5009512e-07, Final residual = 9.5009512e-07, No Iterations 0
DICPCG:  Solving for T, Initial residual = 9.5009512e-07, Final residual = 9.5009512e-07, No Iterations 0
ExecutionTime = 0.24 s  ClockTime = 0 s

Time = 0.3

DICPCG:  Solving for T, Initial residual = 0.0053598427, Final residual = 9.706547e-07, No Iterations 62
DICPCG:  Solving for T, Initial residual = 9.6416497e-07, Final residual = 9.6416497e-07, No Iterations 0
DICPCG:  Solving for T, Initial residual = 9.6416497e-07, Final residual = 9.6416497e-07, No Iterations 0
ExecutionTime = 0.27 s  ClockTime = 0 s

Time = 0.35

DICPCG:  Solving for T, Initial residual = 0.0047838407, Final residual = 8.7507884e-07, No Iterations 59
DICPCG:  Solving for T, Initial residual = 8.7024055e-07, Final residual = 8.7024055e-07, No Iterations 0
DICPCG:  Solving for T, Initial residual = 8.7024055e-07, Final residual = 8.7024055e-07, No Iterations 0
ExecutionTime = 0.3 s  ClockTime = 0 s

Time = 0.4

DICPCG:  Solving for T, Initial residual = 0.0043549924, Final residual = 9.6700553e-07, No Iterations 55
DICPCG:  Solving for T, Initial residual = 9.6250096e-07, Final residual = 9.6250096e-07, No Iterations 0
DICPCG:  Solving for T, Initial residual = 9.6250096e-07, Final residual = 9.6250096e-07, No Iterations 0
ExecutionTime = 0.32 s  ClockTime = 0 s

Time = 0.45

DICPCG:  Solving for T, Initial residual = 0.0040200705, Final residual = 9.2118388e-07, No Iterations 53
DICPCG:  Solving for T, Initial residual = 9.1750607e-07, Final residual = 9.1750607e-07, No Iterations 0
DICPCG:  Solving for T, Initial residual = 9.1750607e-07, Final residual = 9.1750607e-07, No Iterations 0
ExecutionTime = 0.35 s  ClockTime = 0 s

Time = 0.5

DICPCG:  Solving for T, Initial residual = 0.0037490879, Final residual = 8.4484627e-07, No Iterations 52
DICPCG:  Solving for T, Initial residual = 8.4193101e-07, Final residual = 8.4193101e-07, No Iterations 0
DICPCG:  Solving for T, Initial residual = 8.4193101e-07, Final residual = 8.4193101e-07, No Iterations 0
ExecutionTime = 0.37 s  ClockTime = 0 s

Time = 0.55

DICPCG:  Solving for T, Initial residual = 0.0035237495, Final residual = 9.1527531e-07, No Iterations 46
DICPCG:  Solving for T, Initial residual = 9.1251881e-07, Final residual = 9.1251881e-07, No Iterations 0
DICPCG:  Solving for T, Initial residual = 9.1251881e-07, Final residual = 9.1251881e-07, No Iterations 0
ExecutionTime = 0.4 s  ClockTime = 0 s

Time = 0.6

DICPCG:  Solving for T, Initial residual = 0.0033321612, Final residual = 9.298032e-07, No Iterations 45
DICPCG:  Solving for T, Initial residual = 9.2734728e-07, Final residual = 9.2734728e-07, No Iterations 0
DICPCG:  Solving for T, Initial residual = 9.2734728e-07, Final residual = 9.2734728e-07, No Iterations 0
ExecutionTime = 0.42 s  ClockTime = 0 s

Time = 0.65

DICPCG:  Solving for T, Initial residual = 0.0031661657, Final residual = 7.6688106e-07, No Iterations 45
DICPCG:  Solving for T, Initial residual = 7.6509604e-07, Final residual = 7.6509604e-07, No Iterations 0
DICPCG:  Solving for T, Initial residual = 7.6509604e-07, Final residual = 7.6509604e-07, No Iterations 0
ExecutionTime = 0.44 s  ClockTime = 1 s

Time = 0.7

DICPCG:  Solving for T, Initial residual = 0.0030200387, Final residual = 9.6946358e-07, No Iterations 44
DICPCG:  Solving for T, Initial residual = 9.6745863e-07, Final residual = 9.6745863e-07, No Iterations 0
DICPCG:  Solving for T, Initial residual = 9.6745863e-07, Final residual = 9.6745863e-07, No Iterations 0
ExecutionTime = 0.47 s  ClockTime = 1 s

Time = 0.75

DICPCG:  Solving for T, Initial residual = 0.002889607, Final residual = 8.0360532e-07, No Iterations 44
DICPCG:  Solving for T, Initial residual = 8.0212803e-07, Final residual = 8.0212803e-07, No Iterations 0
DICPCG:  Solving for T, Initial residual = 8.0212803e-07, Final residual = 8.0212803e-07, No Iterations 0
ExecutionTime = 0.49 s  ClockTime = 1 s

Time = 0.8

DICPCG:  Solving for T, Initial residual = 0.0027717699, Final residual = 9.7620997e-07, No Iterations 37
DICPCG:  Solving for T, Initial residual = 9.7461433e-07, Final residual = 9.7461433e-07, No Iterations 0
DICPCG:  Solving for T, Initial residual = 9.7461433e-07, Final residual = 9.7461433e-07, No Iterations 0
ExecutionTime = 0.51 s  ClockTime = 1 s

Time = 0.85

DICPCG:  Solving for T, Initial residual = 0.0026641754, Final residual = 7.6500465e-07, No Iterations 37
DICPCG:  Solving for T, Initial residual = 7.63884e-07, Final residual = 7.63884e-07, No Iterations 0
DICPCG:  Solving for T, Initial residual = 7.63884e-07, Final residual = 7.63884e-07, No Iterations 0
ExecutionTime = 0.54 s  ClockTime = 1 s

Time = 0.9

DICPCG:  Solving for T, Initial residual = 0.0025650504, Final residual = 9.4762049e-07, No Iterations 36
DICPCG:  Solving for T, Initial residual = 9.4637769e-07, Final residual = 9.4637769e-07, No Iterations 0
DICPCG:  Solving for T, Initial residual = 9.4637769e-07, Final residual = 9.4637769e-07, No Iterations 0
ExecutionTime = 0.56 s  ClockTime = 1 s

Time = 0.95

DICPCG:  Solving for T, Initial residual = 0.0024729919, Final residual = 8.432695e-07, No Iterations 36
DICPCG:  Solving for T, Initial residual = 8.4227757e-07, Final residual = 8.4227757e-07, No Iterations 0
DICPCG:  Solving for T, Initial residual = 8.4227757e-07, Final residual = 8.4227757e-07, No Iterations 0
ExecutionTime = 0.58 s  ClockTime = 1 s

Time = 1

DICPCG:  Solving for T, Initial residual = 0.0023869029, Final residual = 7.6432472e-07, No Iterations 36
DICPCG:  Solving for T, Initial residual = 7.6351721e-07, Final residual = 7.6351721e-07, No Iterations 0
DICPCG:  Solving for T, Initial residual = 7.6351721e-07, Final residual = 7.6351721e-07, No Iterations 0
ExecutionTime = 0.6 s  ClockTime = 1 s

Time = 1.05

DICPCG:  Solving for T, Initial residual = 0.0023059201, Final residual = 7.0091074e-07, No Iterations 36
DICPCG:  Solving for T, Initial residual = 7.0024492e-07, Final residual = 7.0024492e-07, No Iterations 0
DICPCG:  Solving for T, Initial residual = 7.0024492e-07, Final residual = 7.0024492e-07, No Iterations 0
ExecutionTime = 0.62 s  ClockTime = 1 s

Time = 1.1

DICPCG:  Solving for T, Initial residual = 0.0022293582, Final residual = 6.4785646e-07, No Iterations 36
DICPCG:  Solving for T, Initial residual = 6.4730247e-07, Final residual = 6.4730247e-07, No Iterations 0
DICPCG:  Solving for T, Initial residual = 6.4730247e-07, Final residual = 6.4730247e-07, No Iterations 0
ExecutionTime = 0.65 s  ClockTime = 1 s

Time = 1.15

DICPCG:  Solving for T, Initial residual = 0.0021566595, Final residual = 9.6140507e-07, No Iterations 35
DICPCG:  Solving for T, Initial residual = 9.606611e-07, Final residual = 9.606611e-07, No Iterations 0
DICPCG:  Solving for T, Initial residual = 9.606611e-07, Final residual = 9.606611e-07, No Iterations 0
ExecutionTime = 0.67 s  ClockTime = 1 s

Time = 1.2

DICPCG:  Solving for T, Initial residual = 0.0020873775, Final residual = 8.7924929e-07, No Iterations 35
DICPCG:  Solving for T, Initial residual = 8.7863589e-07, Final residual = 8.7863589e-07, No Iterations 0
DICPCG:  Solving for T, Initial residual = 8.7863589e-07, Final residual = 8.7863589e-07, No Iterations 0
ExecutionTime = 0.69 s  ClockTime = 1 s

Time = 1.25

DICPCG:  Solving for T, Initial residual = 0.0020211691, Final residual = 8.0077376e-07, No Iterations 35
DICPCG:  Solving for T, Initial residual = 8.0027005e-07, Final residual = 8.0027005e-07, No Iterations 0
DICPCG:  Solving for T, Initial residual = 8.0027005e-07, Final residual = 8.0027005e-07, No Iterations 0
ExecutionTime = 0.71 s  ClockTime = 1 s

Time = 1.3

DICPCG:  Solving for T, Initial residual = 0.0019577326, Final residual = 9.3319694e-07, No Iterations 34
DICPCG:  Solving for T, Initial residual = 9.3266845e-07, Final residual = 9.3266845e-07, No Iterations 0
DICPCG:  Solving for T, Initial residual = 9.3266845e-07, Final residual = 9.3266845e-07, No Iterations 0
ExecutionTime = 0.73 s  ClockTime = 1 s

Time = 1.35

DICPCG:  Solving for T, Initial residual = 0.0018968152, Final residual = 8.7303994e-07, No Iterations 28
DICPCG:  Solving for T, Initial residual = 8.7258919e-07, Final residual = 8.7258919e-07, No Iterations 0
DICPCG:  Solving for T, Initial residual = 8.7258919e-07, Final residual = 8.7258919e-07, No Iterations 0
ExecutionTime = 0.75 s  ClockTime = 1 s

Time = 1.4

DICPCG:  Solving for T, Initial residual = 0.0018382397, Final residual = 7.5820533e-07, No Iterations 28
DICPCG:  Solving for T, Initial residual = 7.5785209e-07, Final residual = 7.5785209e-07, No Iterations 0
DICPCG:  Solving for T, Initial residual = 7.5785209e-07, Final residual = 7.5785209e-07, No Iterations 0
ExecutionTime = 0.77 s  ClockTime = 1 s

Time = 1.45

DICPCG:  Solving for T, Initial residual = 0.0017818049, Final residual = 6.723076e-07, No Iterations 28
DICPCG:  Solving for T, Initial residual = 6.7202518e-07, Final residual = 6.7202518e-07, No Iterations 0
DICPCG:  Solving for T, Initial residual = 6.7202518e-07, Final residual = 6.7202518e-07, No Iterations 0
ExecutionTime = 0.79 s  ClockTime = 1 s

Time = 1.5

DICPCG:  Solving for T, Initial residual = 0.0017273697, Final residual = 9.8970516e-07, No Iterations 27
DICPCG:  Solving for T, Initial residual = 9.8932506e-07, Final residual = 9.8932506e-07, No Iterations 0
DICPCG:  Solving for T, Initial residual = 9.8932506e-07, Final residual = 9.8932506e-07, No Iterations 0
ExecutionTime = 0.81 s  ClockTime = 1 s

Time = 1.55

DICPCG:  Solving for T, Initial residual = 0.0016748062, Final residual = 9.2058996e-07, No Iterations 27
DICPCG:  Solving for T, Initial residual = 9.2027366e-07, Final residual = 9.2027366e-07, No Iterations 0
DICPCG:  Solving for T, Initial residual = 9.2027366e-07, Final residual = 9.2027366e-07, No Iterations 0
ExecutionTime = 0.83 s  ClockTime = 1 s

Time = 1.6

DICPCG:  Solving for T, Initial residual = 0.0016240189, Final residual = 8.626676e-07, No Iterations 27
DICPCG:  Solving for T, Initial residual = 8.6239411e-07, Final residual = 8.6239411e-07, No Iterations 0
DICPCG:  Solving for T, Initial residual = 8.6239411e-07, Final residual = 8.6239411e-07, No Iterations 0
ExecutionTime = 0.85 s  ClockTime = 1 s

Time = 1.65

DICPCG:  Solving for T, Initial residual = 0.0015749058, Final residual = 8.105902e-07, No Iterations 27
DICPCG:  Solving for T, Initial residual = 8.1036006e-07, Final residual = 8.1036006e-07, No Iterations 0
DICPCG:  Solving for T, Initial residual = 8.1036006e-07, Final residual = 8.1036006e-07, No Iterations 0
ExecutionTime = 0.87 s  ClockTime = 1 s

Time = 1.7

DICPCG:  Solving for T, Initial residual = 0.0015273904, Final residual = 7.6330613e-07, No Iterations 27
DICPCG:  Solving for T, Initial residual = 7.6310654e-07, Final residual = 7.6310654e-07, No Iterations 0
DICPCG:  Solving for T, Initial residual = 7.6310654e-07, Final residual = 7.6310654e-07, No Iterations 0
ExecutionTime = 0.89 s  ClockTime = 1 s

Time = 1.75

DICPCG:  Solving for T, Initial residual = 0.0014813952, Final residual = 7.199573e-07, No Iterations 27
DICPCG:  Solving for T, Initial residual = 7.1978894e-07, Final residual = 7.1978894e-07, No Iterations 0
DICPCG:  Solving for T, Initial residual = 7.1978894e-07, Final residual = 7.1978894e-07, No Iterations 0
ExecutionTime = 0.9 s  ClockTime = 1 s

Time = 1.8

DICPCG:  Solving for T, Initial residual = 0.0014368586, Final residual = 9.573592e-07, No Iterations 26
DICPCG:  Solving for T, Initial residual = 9.5715134e-07, Final residual = 9.5715134e-07, No Iterations 0
DICPCG:  Solving for T, Initial residual = 9.5715134e-07, Final residual = 9.5715134e-07, No Iterations 0
ExecutionTime = 0.92 s  ClockTime = 1 s

Time = 1.85

DICPCG:  Solving for T, Initial residual = 0.0013937147, Final residual = 9.0553132e-07, No Iterations 26
DICPCG:  Solving for T, Initial residual = 9.0535791e-07, Final residual = 9.0535791e-07, No Iterations 0
DICPCG:  Solving for T, Initial residual = 9.0535791e-07, Final residual = 9.0535791e-07, No Iterations 0
ExecutionTime = 0.94 s  ClockTime = 1 s

Time = 1.9

DICPCG:  Solving for T, Initial residual = 0.0013519165, Final residual = 8.5636947e-07, No Iterations 26
DICPCG:  Solving for T, Initial residual = 8.5621377e-07, Final residual = 8.5621377e-07, No Iterations 0
DICPCG:  Solving for T, Initial residual = 8.5621377e-07, Final residual = 8.5621377e-07, No Iterations 0
ExecutionTime = 0.96 s  ClockTime = 1 s

Time = 1.95

DICPCG:  Solving for T, Initial residual = 0.0013113994, Final residual = 8.1122181e-07, No Iterations 26
DICPCG:  Solving for T, Initial residual = 8.110919e-07, Final residual = 8.110919e-07, No Iterations 0
DICPCG:  Solving for T, Initial residual = 8.110919e-07, Final residual = 8.110919e-07, No Iterations 0
ExecutionTime = 0.98 s  ClockTime = 1 s

Time = 2

DICPCG:  Solving for T, Initial residual = 0.0012721337, Final residual = 7.7011384e-07, No Iterations 26
DICPCG:  Solving for T, Initial residual = 7.6999785e-07, Final residual = 7.6999785e-07, No Iterations 0
DICPCG:  Solving for T, Initial residual = 7.6999785e-07, Final residual = 7.6999785e-07, No Iterations 0
ExecutionTime = 1 s  ClockTime = 1 s

Time = 2.05

DICPCG:  Solving for T, Initial residual = 0.0012340595, Final residual = 7.3283766e-07, No Iterations 26
DICPCG:  Solving for T, Initial residual = 7.3273836e-07, Final residual = 7.3273836e-07, No Iterations 0
DICPCG:  Solving for T, Initial residual = 7.3273836e-07, Final residual = 7.3273836e-07, No Iterations 0
ExecutionTime = 1.02 s  ClockTime = 1 s

Time = 2.1

DICPCG:  Solving for T, Initial residual = 0.0011971457, Final residual = 6.9899328e-07, No Iterations 26
DICPCG:  Solving for T, Initial residual = 6.9890857e-07, Final residual = 6.9890857e-07, No Iterations 0
DICPCG:  Solving for T, Initial residual = 6.9890857e-07, Final residual = 6.9890857e-07, No Iterations 0
ExecutionTime = 1.04 s  ClockTime = 1 s

Time = 2.15

DICPCG:  Solving for T, Initial residual = 0.001161353, Final residual = 6.6821786e-07, No Iterations 26
DICPCG:  Solving for T, Initial residual = 6.6814009e-07, Final residual = 6.6814009e-07, No Iterations 0
DICPCG:  Solving for T, Initial residual = 6.6814009e-07, Final residual = 6.6814009e-07, No Iterations 0
ExecutionTime = 1.05 s  ClockTime = 1 s

Time = 2.2

DICPCG:  Solving for T, Initial residual = 0.0011266347, Final residual = 6.4018558e-07, No Iterations 26
DICPCG:  Solving for T, Initial residual = 6.4012053e-07, Final residual = 6.4012053e-07, No Iterations 0
DICPCG:  Solving for T, Initial residual = 6.4012053e-07, Final residual = 6.4012053e-07, No Iterations 0
ExecutionTime = 1.07 s  ClockTime = 1 s

Time = 2.25

DICPCG:  Solving for T, Initial residual = 0.0010929678, Final residual = 6.1462196e-07, No Iterations 26
DICPCG:  Solving for T, Initial residual = 6.145638e-07, Final residual = 6.145638e-07, No Iterations 0
DICPCG:  Solving for T, Initial residual = 6.145638e-07, Final residual = 6.145638e-07, No Iterations 0
ExecutionTime = 1.09 s  ClockTime = 1 s

Time = 2.3

DICPCG:  Solving for T, Initial residual = 0.0010603121, Final residual = 5.9122017e-07, No Iterations 26
DICPCG:  Solving for T, Initial residual = 5.9116751e-07, Final residual = 5.9116751e-07, No Iterations 0
DICPCG:  Solving for T, Initial residual = 5.9116751e-07, Final residual = 5.9116751e-07, No Iterations 0
ExecutionTime = 1.11 s  ClockTime = 1 s

Time = 2.35

DICPCG:  Solving for T, Initial residual = 0.0010286339, Final residual = 9.619215e-07, No Iterations 25
DICPCG:  Solving for T, Initial residual = 9.6184734e-07, Final residual = 9.6184734e-07, No Iterations 0
DICPCG:  Solving for T, Initial residual = 9.6184734e-07, Final residual = 9.6184734e-07, No Iterations 0
ExecutionTime = 1.13 s  ClockTime = 1 s

Time = 2.4

DICPCG:  Solving for T, Initial residual = 0.0009979095, Final residual = 9.356495e-07, No Iterations 25
DICPCG:  Solving for T, Initial residual = 9.3558092e-07, Final residual = 9.3558092e-07, No Iterations 0
DICPCG:  Solving for T, Initial residual = 9.3558092e-07, Final residual = 9.3558092e-07, No Iterations 0
ExecutionTime = 1.15 s  ClockTime = 1 s

Time = 2.45

DICPCG:  Solving for T, Initial residual = 0.00096810273, Final residual = 9.1087571e-07, No Iterations 25
DICPCG:  Solving for T, Initial residual = 9.1081236e-07, Final residual = 9.1081236e-07, No Iterations 0
DICPCG:  Solving for T, Initial residual = 9.1081236e-07, Final residual = 9.1081236e-07, No Iterations 0
ExecutionTime = 1.16 s  ClockTime = 1 s

Time = 2.5

DICPCG:  Solving for T, Initial residual = 0.00093918492, Final residual = 8.8845843e-07, No Iterations 25
DICPCG:  Solving for T, Initial residual = 8.8840536e-07, Final residual = 8.8840536e-07, No Iterations 0
DICPCG:  Solving for T, Initial residual = 8.8840536e-07, Final residual = 8.8840536e-07, No Iterations 0
ExecutionTime = 1.18 s  ClockTime = 1 s

Time = 2.55

DICPCG:  Solving for T, Initial residual = 0.00091113474, Final residual = 8.67851e-07, No Iterations 25
DICPCG:  Solving for T, Initial residual = 8.6780273e-07, Final residual = 8.6780273e-07, No Iterations 0
DICPCG:  Solving for T, Initial residual = 8.6780273e-07, Final residual = 8.6780273e-07, No Iterations 0
ExecutionTime = 1.2 s  ClockTime = 1 s

Time = 2.6

DICPCG:  Solving for T, Initial residual = 0.00088392306, Final residual = 8.4840951e-07, No Iterations 25
DICPCG:  Solving for T, Initial residual = 8.4836305e-07, Final residual = 8.4836305e-07, No Iterations 0
DICPCG:  Solving for T, Initial residual = 8.4836305e-07, Final residual = 8.4836305e-07, No Iterations 0
ExecutionTime = 1.22 s  ClockTime = 1 s

Time = 2.65

DICPCG:  Solving for T, Initial residual = 0.00085752106, Final residual = 8.2947699e-07, No Iterations 25
DICPCG:  Solving for T, Initial residual = 8.2943729e-07, Final residual = 8.2943729e-07, No Iterations 0
DICPCG:  Solving for T, Initial residual = 8.2943729e-07, Final residual = 8.2943729e-07, No Iterations 0
ExecutionTime = 1.24 s  ClockTime = 1 s

Time = 2.7

DICPCG:  Solving for T, Initial residual = 0.00083190862, Final residual = 8.1029592e-07, No Iterations 25
DICPCG:  Solving for T, Initial residual = 8.1026316e-07, Final residual = 8.1026316e-07, No Iterations 0
DICPCG:  Solving for T, Initial residual = 8.1026316e-07, Final residual = 8.1026316e-07, No Iterations 0
ExecutionTime = 1.26 s  ClockTime = 1 s

Time = 2.75

DICPCG:  Solving for T, Initial residual = 0.00080706259, Final residual = 7.9021305e-07, No Iterations 25
DICPCG:  Solving for T, Initial residual = 7.9017948e-07, Final residual = 7.9017948e-07, No Iterations 0
DICPCG:  Solving for T, Initial residual = 7.9017948e-07, Final residual = 7.9017948e-07, No Iterations 0
ExecutionTime = 1.28 s  ClockTime = 1 s

Time = 2.8

DICPCG:  Solving for T, Initial residual = 0.00078295616, Final residual = 9.7145557e-07, No Iterations 24
DICPCG:  Solving for T, Initial residual = 9.7141669e-07, Final residual = 9.7141669e-07, No Iterations 0
DICPCG:  Solving for T, Initial residual = 9.7141669e-07, Final residual = 9.7141669e-07, No Iterations 0
ExecutionTime = 1.3 s  ClockTime = 1 s

Time = 2.85

DICPCG:  Solving for T, Initial residual = 0.00075956555, Final residual = 9.3606273e-07, No Iterations 24
DICPCG:  Solving for T, Initial residual = 9.3603113e-07, Final residual = 9.3603113e-07, No Iterations 0
DICPCG:  Solving for T, Initial residual = 9.3603113e-07, Final residual = 9.3603113e-07, No Iterations 0
ExecutionTime = 1.31 s  ClockTime = 1 s

Time = 2.9

DICPCG:  Solving for T, Initial residual = 0.00073687502, Final residual = 9.0506349e-07, No Iterations 24
DICPCG:  Solving for T, Initial residual = 9.0503681e-07, Final residual = 9.0503681e-07, No Iterations 0
DICPCG:  Solving for T, Initial residual = 9.0503681e-07, Final residual = 9.0503681e-07, No Iterations 0
ExecutionTime = 1.33 s  ClockTime = 1 s

Time = 2.95

DICPCG:  Solving for T, Initial residual = 0.00071486249, Final residual = 8.6790121e-07, No Iterations 24
DICPCG:  Solving for T, Initial residual = 8.6787428e-07, Final residual = 8.6787428e-07, No Iterations 0
DICPCG:  Solving for T, Initial residual = 8.6787428e-07, Final residual = 8.6787428e-07, No Iterations 0
ExecutionTime = 1.35 s  ClockTime = 1 s

Time = 3

DICPCG:  Solving for T, Initial residual = 0.00069350609, Final residual = 9.7130571e-07, No Iterations 18
DICPCG:  Solving for T, Initial residual = 9.7127677e-07, Final residual = 9.7127677e-07, No Iterations 0
DICPCG:  Solving for T, Initial residual = 9.7127677e-07, Final residual = 9.7127677e-07, No Iterations 0
ExecutionTime = 1.37 s  ClockTime = 1 s

Time = 3.05

DICPCG:  Solving for T, Initial residual = 0.00067281991, Final residual = 8.3118869e-07, No Iterations 18
DICPCG:  Solving for T, Initial residual = 8.3116743e-07, Final residual = 8.3116743e-07, No Iterations 0
DICPCG:  Solving for T, Initial residual = 8.3116743e-07, Final residual = 8.3116743e-07, No Iterations 0
ExecutionTime = 1.37 s  ClockTime = 1 s

Time = 3.1

DICPCG:  Solving for T, Initial residual = 0.00065271444, Final residual = 7.4426919e-07, No Iterations 18
DICPCG:  Solving for T, Initial residual = 7.4425404e-07, Final residual = 7.4425404e-07, No Iterations 0
DICPCG:  Solving for T, Initial residual = 7.4425404e-07, Final residual = 7.4425404e-07, No Iterations 0
ExecutionTime = 1.39 s  ClockTime = 1 s

Time = 3.15

DICPCG:  Solving for T, Initial residual = 0.00063321321, Final residual = 6.711655e-07, No Iterations 18
DICPCG:  Solving for T, Initial residual = 6.7115029e-07, Final residual = 6.7115029e-07, No Iterations 0
DICPCG:  Solving for T, Initial residual = 6.7115029e-07, Final residual = 6.7115029e-07, No Iterations 0
ExecutionTime = 1.42 s  ClockTime = 1 s

Time = 3.2

DICPCG:  Solving for T, Initial residual = 0.00061429165, Final residual = 6.0989829e-07, No Iterations 18
DICPCG:  Solving for T, Initial residual = 6.0988515e-07, Final residual = 6.0988515e-07, No Iterations 0
DICPCG:  Solving for T, Initial residual = 6.0988515e-07, Final residual = 6.0988515e-07, No Iterations 0
ExecutionTime = 1.44 s  ClockTime = 2 s

Time = 3.25

DICPCG:  Solving for T, Initial residual = 0.00059593553, Final residual = 9.7211025e-07, No Iterations 17
DICPCG:  Solving for T, Initial residual = 9.7209038e-07, Final residual = 9.7209038e-07, No Iterations 0
DICPCG:  Solving for T, Initial residual = 9.7209038e-07, Final residual = 9.7209038e-07, No Iterations 0
ExecutionTime = 1.45 s  ClockTime = 2 s

Time = 3.3

DICPCG:  Solving for T, Initial residual = 0.00057813383, Final residual = 9.135365e-07, No Iterations 17
DICPCG:  Solving for T, Initial residual = 9.1352124e-07, Final residual = 9.1352124e-07, No Iterations 0
DICPCG:  Solving for T, Initial residual = 9.1352124e-07, Final residual = 9.1352124e-07, No Iterations 0
ExecutionTime = 1.47 s  ClockTime = 2 s

Time = 3.35

DICPCG:  Solving for T, Initial residual = 0.00056085573, Final residual = 8.7511473e-07, No Iterations 17
DICPCG:  Solving for T, Initial residual = 8.7510298e-07, Final residual = 8.7510298e-07, No Iterations 0
DICPCG:  Solving for T, Initial residual = 8.7510298e-07, Final residual = 8.7510298e-07, No Iterations 0
ExecutionTime = 1.49 s  ClockTime = 2 s

Time = 3.4

DICPCG:  Solving for T, Initial residual = 0.00054409382, Final residual = 8.4098956e-07, No Iterations 17
DICPCG:  Solving for T, Initial residual = 8.409765e-07, Final residual = 8.409765e-07, No Iterations 0
DICPCG:  Solving for T, Initial residual = 8.409765e-07, Final residual = 8.409765e-07, No Iterations 0
ExecutionTime = 1.5 s  ClockTime = 2 s

Time = 3.45

DICPCG:  Solving for T, Initial residual = 0.00052783122, Final residual = 8.0939043e-07, No Iterations 17
DICPCG:  Solving for T, Initial residual = 8.0937847e-07, Final residual = 8.0937847e-07, No Iterations 0
DICPCG:  Solving for T, Initial residual = 8.0937847e-07, Final residual = 8.0937847e-07, No Iterations 0
ExecutionTime = 1.52 s  ClockTime = 2 s

Time = 3.5

DICPCG:  Solving for T, Initial residual = 0.00051205455, Final residual = 7.7999624e-07, No Iterations 17
DICPCG:  Solving for T, Initial residual = 7.7998527e-07, Final residual = 7.7998527e-07, No Iterations 0
DICPCG:  Solving for T, Initial residual = 7.7998527e-07, Final residual = 7.7998527e-07, No Iterations 0
ExecutionTime = 1.54 s  ClockTime = 2 s

Time = 3.55

DICPCG:  Solving for T, Initial residual = 0.00049674896, Final residual = 7.5252213e-07, No Iterations 17
DICPCG:  Solving for T, Initial residual = 7.5251247e-07, Final residual = 7.5251247e-07, No Iterations 0
DICPCG:  Solving for T, Initial residual = 7.5251247e-07, Final residual = 7.5251247e-07, No Iterations 0
ExecutionTime = 1.56 s  ClockTime = 2 s

Time = 3.6

DICPCG:  Solving for T, Initial residual = 0.00048189963, Final residual = 7.266701e-07, No Iterations 17
DICPCG:  Solving for T, Initial residual = 7.266632e-07, Final residual = 7.266632e-07, No Iterations 0
DICPCG:  Solving for T, Initial residual = 7.266632e-07, Final residual = 7.266632e-07, No Iterations 0
ExecutionTime = 1.57 s  ClockTime = 2 s

Time = 3.65

DICPCG:  Solving for T, Initial residual = 0.00046749401, Final residual = 7.0224227e-07, No Iterations 17
DICPCG:  Solving for T, Initial residual = 7.0223585e-07, Final residual = 7.0223585e-07, No Iterations 0
DICPCG:  Solving for T, Initial residual = 7.0223585e-07, Final residual = 7.0223585e-07, No Iterations 0
ExecutionTime = 1.59 s  ClockTime = 2 s

Time = 3.7

DICPCG:  Solving for T, Initial residual = 0.00045351818, Final residual = 6.7908534e-07, No Iterations 17
DICPCG:  Solving for T, Initial residual = 6.7907853e-07, Final residual = 6.7907853e-07, No Iterations 0
DICPCG:  Solving for T, Initial residual = 6.7907853e-07, Final residual = 6.7907853e-07, No Iterations 0
ExecutionTime = 1.6 s  ClockTime = 2 s

Time = 3.75

DICPCG:  Solving for T, Initial residual = 0.0004399594, Final residual = 6.570437e-07, No Iterations 17
DICPCG:  Solving for T, Initial residual = 6.570374e-07, Final residual = 6.570374e-07, No Iterations 0
DICPCG:  Solving for T, Initial residual = 6.570374e-07, Final residual = 6.570374e-07, No Iterations 0
ExecutionTime = 1.62 s  ClockTime = 2 s

Time = 3.8

DICPCG:  Solving for T, Initial residual = 0.00042680582, Final residual = 6.3600225e-07, No Iterations 17
DICPCG:  Solving for T, Initial residual = 6.3599641e-07, Final residual = 6.3599641e-07, No Iterations 0
DICPCG:  Solving for T, Initial residual = 6.3599641e-07, Final residual = 6.3599641e-07, No Iterations 0
ExecutionTime = 1.63 s  ClockTime = 2 s

Time = 3.85

DICPCG:  Solving for T, Initial residual = 0.00041404531, Final residual = 6.1587069e-07, No Iterations 17
DICPCG:  Solving for T, Initial residual = 6.1586527e-07, Final residual = 6.1586527e-07, No Iterations 0
DICPCG:  Solving for T, Initial residual = 6.1586527e-07, Final residual = 6.1586527e-07, No Iterations 0
ExecutionTime = 1.65 s  ClockTime = 2 s

Time = 3.9

DICPCG:  Solving for T, Initial residual = 0.00040166568, Final residual = 5.9656462e-07, No Iterations 17
DICPCG:  Solving for T, Initial residual = 5.9656026e-07, Final residual = 5.9656026e-07, No Iterations 0
DICPCG:  Solving for T, Initial residual = 5.9656026e-07, Final residual = 5.9656026e-07, No Iterations 0
ExecutionTime = 1.67 s  ClockTime = 2 s

Time = 3.95

DICPCG:  Solving for T, Initial residual = 0.0003896556, Final residual = 5.7801129e-07, No Iterations 17
DICPCG:  Solving for T, Initial residual = 5.7800854e-07, Final residual = 5.7800854e-07, No Iterations 0
DICPCG:  Solving for T, Initial residual = 5.7800854e-07, Final residual = 5.7800854e-07, No Iterations 0
ExecutionTime = 1.68 s  ClockTime = 2 s

Time = 4

DICPCG:  Solving for T, Initial residual = 0.00037800447, Final residual = 5.6015733e-07, No Iterations 17
DICPCG:  Solving for T, Initial residual = 5.60154e-07, Final residual = 5.60154e-07, No Iterations 0
DICPCG:  Solving for T, Initial residual = 5.60154e-07, Final residual = 5.60154e-07, No Iterations 0
ExecutionTime = 1.7 s  ClockTime = 2 s

Time = 4.05

DICPCG:  Solving for T, Initial residual = 0.00036670091, Final residual = 5.4295384e-07, No Iterations 17
DICPCG:  Solving for T, Initial residual = 5.4295052e-07, Final residual = 5.4295052e-07, No Iterations 0
DICPCG:  Solving for T, Initial residual = 5.4295052e-07, Final residual = 5.4295052e-07, No Iterations 0
ExecutionTime = 1.72 s  ClockTime = 2 s

Time = 4.1

DICPCG:  Solving for T, Initial residual = 0.00035573509, Final residual = 5.2635727e-07, No Iterations 17
DICPCG:  Solving for T, Initial residual = 5.2635418e-07, Final residual = 5.2635418e-07, No Iterations 0
DICPCG:  Solving for T, Initial residual = 5.2635418e-07, Final residual = 5.2635418e-07, No Iterations 0
ExecutionTime = 1.73 s  ClockTime = 2 s

Time = 4.15

DICPCG:  Solving for T, Initial residual = 0.00034509706, Final residual = 5.1032848e-07, No Iterations 17
DICPCG:  Solving for T, Initial residual = 5.103256e-07, Final residual = 5.103256e-07, No Iterations 0
DICPCG:  Solving for T, Initial residual = 5.103256e-07, Final residual = 5.103256e-07, No Iterations 0
ExecutionTime = 1.75 s  ClockTime = 2 s

Time = 4.2

DICPCG:  Solving for T, Initial residual = 0.00033477705, Final residual = 4.9483712e-07, No Iterations 17
DICPCG:  Solving for T, Initial residual = 4.9483443e-07, Final residual = 4.9483443e-07, No Iterations 0
DICPCG:  Solving for T, Initial residual = 4.9483443e-07, Final residual = 4.9483443e-07, No Iterations 0
ExecutionTime = 1.77 s  ClockTime = 2 s

Time = 4.25

DICPCG:  Solving for T, Initial residual = 0.00032476553, Final residual = 4.7985718e-07, No Iterations 17
DICPCG:  Solving for T, Initial residual = 4.7985467e-07, Final residual = 4.7985467e-07, No Iterations 0
DICPCG:  Solving for T, Initial residual = 4.7985467e-07, Final residual = 4.7985467e-07, No Iterations 0
ExecutionTime = 1.78 s  ClockTime = 2 s

Time = 4.3

DICPCG:  Solving for T, Initial residual = 0.00031505321, Final residual = 4.6536321e-07, No Iterations 17
DICPCG:  Solving for T, Initial residual = 4.6536099e-07, Final residual = 4.6536099e-07, No Iterations 0
DICPCG:  Solving for T, Initial residual = 4.6536099e-07, Final residual = 4.6536099e-07, No Iterations 0
ExecutionTime = 1.8 s  ClockTime = 2 s

Time = 4.35

DICPCG:  Solving for T, Initial residual = 0.00030563079, Final residual = 4.5133276e-07, No Iterations 17
DICPCG:  Solving for T, Initial residual = 4.5133147e-07, Final residual = 4.5133147e-07, No Iterations 0
DICPCG:  Solving for T, Initial residual = 4.5133147e-07, Final residual = 4.5133147e-07, No Iterations 0
ExecutionTime = 1.81 s  ClockTime = 2 s

Time = 4.4

DICPCG:  Solving for T, Initial residual = 0.00029649008, Final residual = 4.3774481e-07, No Iterations 17
DICPCG:  Solving for T, Initial residual = 4.3774366e-07, Final residual = 4.3774366e-07, No Iterations 0
DICPCG:  Solving for T, Initial residual = 4.3774366e-07, Final residual = 4.3774366e-07, No Iterations 0
ExecutionTime = 1.83 s  ClockTime = 2 s

Time = 4.45

DICPCG:  Solving for T, Initial residual = 0.00028762243, Final residual = 4.2458282e-07, No Iterations 17
DICPCG:  Solving for T, Initial residual = 4.2458135e-07, Final residual = 4.2458135e-07, No Iterations 0
DICPCG:  Solving for T, Initial residual = 4.2458135e-07, Final residual = 4.2458135e-07, No Iterations 0
ExecutionTime = 1.85 s  ClockTime = 2 s

Time = 4.5

DICPCG:  Solving for T, Initial residual = 0.00027901966, Final residual = 9.7938245e-07, No Iterations 16
DICPCG:  Solving for T, Initial residual = 9.793792e-07, Final residual = 9.793792e-07, No Iterations 0
DICPCG:  Solving for T, Initial residual = 9.793792e-07, Final residual = 9.793792e-07, No Iterations 0
ExecutionTime = 1.86 s  ClockTime = 2 s

Time = 4.55

DICPCG:  Solving for T, Initial residual = 0.00027067329, Final residual = 9.5768008e-07, No Iterations 16
DICPCG:  Solving for T, Initial residual = 9.5767701e-07, Final residual = 9.5767701e-07, No Iterations 0
DICPCG:  Solving for T, Initial residual = 9.5767701e-07, Final residual = 9.5767701e-07, No Iterations 0
ExecutionTime = 1.88 s  ClockTime = 2 s

Time = 4.6

DICPCG:  Solving for T, Initial residual = 0.00026257674, Final residual = 9.2129724e-07, No Iterations 16
DICPCG:  Solving for T, Initial residual = 9.212944e-07, Final residual = 9.212944e-07, No Iterations 0
DICPCG:  Solving for T, Initial residual = 9.212944e-07, Final residual = 9.212944e-07, No Iterations 0
ExecutionTime = 1.89 s  ClockTime = 2 s

Time = 4.65

DICPCG:  Solving for T, Initial residual = 0.00025472291, Final residual = 8.9308982e-07, No Iterations 16
DICPCG:  Solving for T, Initial residual = 8.9308715e-07, Final residual = 8.9308715e-07, No Iterations 0
DICPCG:  Solving for T, Initial residual = 8.9308715e-07, Final residual = 8.9308715e-07, No Iterations 0
ExecutionTime = 1.91 s  ClockTime = 2 s

Time = 4.7

DICPCG:  Solving for T, Initial residual = 0.00024710394, Final residual = 8.6665274e-07, No Iterations 16
DICPCG:  Solving for T, Initial residual = 8.6665025e-07, Final residual = 8.6665025e-07, No Iterations 0
DICPCG:  Solving for T, Initial residual = 8.6665025e-07, Final residual = 8.6665025e-07, No Iterations 0
ExecutionTime = 1.93 s  ClockTime = 2 s

Time = 4.75

DICPCG:  Solving for T, Initial residual = 0.0002397128, Final residual = 8.4066785e-07, No Iterations 16
DICPCG:  Solving for T, Initial residual = 8.4066551e-07, Final residual = 8.4066551e-07, No Iterations 0
DICPCG:  Solving for T, Initial residual = 8.4066551e-07, Final residual = 8.4066551e-07, No Iterations 0
ExecutionTime = 1.94 s  ClockTime = 2 s

Time = 4.8

DICPCG:  Solving for T, Initial residual = 0.00023254268, Final residual = 8.1551666e-07, No Iterations 16
DICPCG:  Solving for T, Initial residual = 8.1551447e-07, Final residual = 8.1551447e-07, No Iterations 0
DICPCG:  Solving for T, Initial residual = 8.1551447e-07, Final residual = 8.1551447e-07, No Iterations 0
ExecutionTime = 1.96 s  ClockTime = 2 s

Time = 4.85

DICPCG:  Solving for T, Initial residual = 0.00022558697, Final residual = 7.9111446e-07, No Iterations 16
DICPCG:  Solving for T, Initial residual = 7.911124e-07, Final residual = 7.911124e-07, No Iterations 0
DICPCG:  Solving for T, Initial residual = 7.911124e-07, Final residual = 7.911124e-07, No Iterations 0
ExecutionTime = 1.97 s  ClockTime = 2 s

Time = 4.9

DICPCG:  Solving for T, Initial residual = 0.00021883901, Final residual = 7.6744295e-07, No Iterations 16
DICPCG:  Solving for T, Initial residual = 7.6744198e-07, Final residual = 7.6744198e-07, No Iterations 0
DICPCG:  Solving for T, Initial residual = 7.6744198e-07, Final residual = 7.6744198e-07, No Iterations 0
ExecutionTime = 1.99 s  ClockTime = 2 s

Time = 4.95

DICPCG:  Solving for T, Initial residual = 0.00021229285, Final residual = 7.4448119e-07, No Iterations 16
DICPCG:  Solving for T, Initial residual = 7.4448062e-07, Final residual = 7.4448062e-07, No Iterations 0
DICPCG:  Solving for T, Initial residual = 7.4448062e-07, Final residual = 7.4448062e-07, No Iterations 0
ExecutionTime = 2 s  ClockTime = 2 s

Time = 5

DICPCG:  Solving for T, Initial residual = 0.0002059424, Final residual = 7.2220707e-07, No Iterations 16
DICPCG:  Solving for T, Initial residual = 7.2220592e-07, Final residual = 7.2220592e-07, No Iterations 0
DICPCG:  Solving for T, Initial residual = 7.2220592e-07, Final residual = 7.2220592e-07, No Iterations 0
ExecutionTime = 2.02 s  ClockTime = 2 s

Time = 5.05

DICPCG:  Solving for T, Initial residual = 0.00019978171, Final residual = 9.9689138e-07, No Iterations 15
DICPCG:  Solving for T, Initial residual = 9.9688985e-07, Final residual = 9.9688985e-07, No Iterations 0
DICPCG:  Solving for T, Initial residual = 9.9688985e-07, Final residual = 9.9688985e-07, No Iterations 0
ExecutionTime = 2.04 s  ClockTime = 2 s

Time = 5.1

DICPCG:  Solving for T, Initial residual = 0.00019379099, Final residual = 8.6531043e-07, No Iterations 15
DICPCG:  Solving for T, Initial residual = 8.6530914e-07, Final residual = 8.6530914e-07, No Iterations 0
DICPCG:  Solving for T, Initial residual = 8.6530914e-07, Final residual = 8.6530914e-07, No Iterations 0
ExecutionTime = 2.06 s  ClockTime = 2 s

Time = 5.15

DICPCG:  Solving for T, Initial residual = 0.00018799459, Final residual = 8.4478167e-07, No Iterations 15
DICPCG:  Solving for T, Initial residual = 8.4478046e-07, Final residual = 8.4478046e-07, No Iterations 0
DICPCG:  Solving for T, Initial residual = 8.4478046e-07, Final residual = 8.4478046e-07, No Iterations 0
ExecutionTime = 2.08 s  ClockTime = 2 s

Time = 5.2

DICPCG:  Solving for T, Initial residual = 0.00018237053, Final residual = 8.1777332e-07, No Iterations 15
DICPCG:  Solving for T, Initial residual = 8.1777218e-07, Final residual = 8.1777218e-07, No Iterations 0
DICPCG:  Solving for T, Initial residual = 8.1777218e-07, Final residual = 8.1777218e-07, No Iterations 0
ExecutionTime = 2.09 s  ClockTime = 2 s

Time = 5.25

DICPCG:  Solving for T, Initial residual = 0.00017691514, Final residual = 7.9507469e-07, No Iterations 15
DICPCG:  Solving for T, Initial residual = 7.9507363e-07, Final residual = 7.9507363e-07, No Iterations 0
DICPCG:  Solving for T, Initial residual = 7.9507363e-07, Final residual = 7.9507363e-07, No Iterations 0
ExecutionTime = 2.11 s  ClockTime = 2 s

Time = 5.3

DICPCG:  Solving for T, Initial residual = 0.00017162253, Final residual = 7.7005808e-07, No Iterations 15
DICPCG:  Solving for T, Initial residual = 7.7005708e-07, Final residual = 7.7005708e-07, No Iterations 0
DICPCG:  Solving for T, Initial residual = 7.7005708e-07, Final residual = 7.7005708e-07, No Iterations 0
ExecutionTime = 2.12 s  ClockTime = 2 s

Time = 5.35

DICPCG:  Solving for T, Initial residual = 0.00016648851, Final residual = 7.4798332e-07, No Iterations 15
DICPCG:  Solving for T, Initial residual = 7.4798238e-07, Final residual = 7.4798238e-07, No Iterations 0
DICPCG:  Solving for T, Initial residual = 7.4798238e-07, Final residual = 7.4798238e-07, No Iterations 0
ExecutionTime = 2.14 s  ClockTime = 2 s

Time = 5.4

DICPCG:  Solving for T, Initial residual = 0.00016150784, Final residual = 7.2484954e-07, No Iterations 15
DICPCG:  Solving for T, Initial residual = 7.2484865e-07, Final residual = 7.2484865e-07, No Iterations 0
DICPCG:  Solving for T, Initial residual = 7.2484865e-07, Final residual = 7.2484865e-07, No Iterations 0
ExecutionTime = 2.15 s  ClockTime = 2 s

Time = 5.45

DICPCG:  Solving for T, Initial residual = 0.00015667632, Final residual = 7.037345e-07, No Iterations 15
DICPCG:  Solving for T, Initial residual = 7.0373367e-07, Final residual = 7.0373367e-07, No Iterations 0
DICPCG:  Solving for T, Initial residual = 7.0373367e-07, Final residual = 7.0373367e-07, No Iterations 0
ExecutionTime = 2.17 s  ClockTime = 2 s

Time = 5.5

DICPCG:  Solving for T, Initial residual = 0.00015198919, Final residual = 6.8223847e-07, No Iterations 15
DICPCG:  Solving for T, Initial residual = 6.8223769e-07, Final residual = 6.8223769e-07, No Iterations 0
DICPCG:  Solving for T, Initial residual = 6.8223769e-07, Final residual = 6.8223769e-07, No Iterations 0
ExecutionTime = 2.19 s  ClockTime = 2 s

Time = 5.55

DICPCG:  Solving for T, Initial residual = 0.00014744237, Final residual = 6.6216244e-07, No Iterations 15
DICPCG:  Solving for T, Initial residual = 6.6216171e-07, Final residual = 6.6216171e-07, No Iterations 0
DICPCG:  Solving for T, Initial residual = 6.6216171e-07, Final residual = 6.6216171e-07, No Iterations 0
ExecutionTime = 2.19 s  ClockTime = 2 s

Time = 5.6

DICPCG:  Solving for T, Initial residual = 0.00014303147, Final residual = 6.4209468e-07, No Iterations 15
DICPCG:  Solving for T, Initial residual = 6.4209399e-07, Final residual = 6.4209399e-07, No Iterations 0
DICPCG:  Solving for T, Initial residual = 6.4209399e-07, Final residual = 6.4209399e-07, No Iterations 0
ExecutionTime = 2.22 s  ClockTime = 2 s

Time = 5.65

DICPCG:  Solving for T, Initial residual = 0.00013875258, Final residual = 6.2308368e-07, No Iterations 15
DICPCG:  Solving for T, Initial residual = 6.2308304e-07, Final residual = 6.2308304e-07, No Iterations 0
DICPCG:  Solving for T, Initial residual = 6.2308304e-07, Final residual = 6.2308304e-07, No Iterations 0
ExecutionTime = 2.24 s  ClockTime = 2 s

Time = 5.7

DICPCG:  Solving for T, Initial residual = 0.00013460161, Final residual = 6.0428793e-07, No Iterations 15
DICPCG:  Solving for T, Initial residual = 6.0428738e-07, Final residual = 6.0428738e-07, No Iterations 0
DICPCG:  Solving for T, Initial residual = 6.0428738e-07, Final residual = 6.0428738e-07, No Iterations 0
ExecutionTime = 2.25 s  ClockTime = 2 s

Time = 5.75

DICPCG:  Solving for T, Initial residual = 0.00013057477, Final residual = 5.8633041e-07, No Iterations 15
DICPCG:  Solving for T, Initial residual = 5.8633033e-07, Final residual = 5.8633033e-07, No Iterations 0
DICPCG:  Solving for T, Initial residual = 5.8633033e-07, Final residual = 5.8633033e-07, No Iterations 0
ExecutionTime = 2.27 s  ClockTime = 2 s

Time = 5.8

DICPCG:  Solving for T, Initial residual = 0.00012666837, Final residual = 9.7121298e-07, No Iterations 14
DICPCG:  Solving for T, Initial residual = 9.7121292e-07, Final residual = 9.7121292e-07, No Iterations 0
DICPCG:  Solving for T, Initial residual = 9.7121292e-07, Final residual = 9.7121292e-07, No Iterations 0
ExecutionTime = 2.28 s  ClockTime = 2 s

Time = 5.85

DICPCG:  Solving for T, Initial residual = 0.00012286662, Final residual = 9.4945516e-07, No Iterations 14
DICPCG:  Solving for T, Initial residual = 9.4945472e-07, Final residual = 9.4945472e-07, No Iterations 0
DICPCG:  Solving for T, Initial residual = 9.4945472e-07, Final residual = 9.4945472e-07, No Iterations 0
ExecutionTime = 2.3 s  ClockTime = 2 s

Time = 5.9

DICPCG:  Solving for T, Initial residual = 0.00011919077, Final residual = 9.2635085e-07, No Iterations 14
DICPCG:  Solving for T, Initial residual = 9.2635044e-07, Final residual = 9.2635044e-07, No Iterations 0
DICPCG:  Solving for T, Initial residual = 9.2635044e-07, Final residual = 9.2635044e-07, No Iterations 0
ExecutionTime = 2.32 s  ClockTime = 2 s

Time = 5.95

DICPCG:  Solving for T, Initial residual = 0.00011562469, Final residual = 8.9706763e-07, No Iterations 14
DICPCG:  Solving for T, Initial residual = 8.9706724e-07, Final residual = 8.9706724e-07, No Iterations 0
DICPCG:  Solving for T, Initial residual = 8.9706724e-07, Final residual = 8.9706724e-07, No Iterations 0
ExecutionTime = 2.34 s  ClockTime = 2 s

Time = 6

DICPCG:  Solving for T, Initial residual = 0.00011216552, Final residual = 8.6991112e-07, No Iterations 14
DICPCG:  Solving for T, Initial residual = 8.6991075e-07, Final residual = 8.6991075e-07, No Iterations 0
DICPCG:  Solving for T, Initial residual = 8.6991075e-07, Final residual = 8.6991075e-07, No Iterations 0
ExecutionTime = 2.35 s  ClockTime = 2 s

Time = 6.05

DICPCG:  Solving for T, Initial residual = 0.00010880975, Final residual = 8.4411533e-07, No Iterations 14
DICPCG:  Solving for T, Initial residual = 8.4411498e-07, Final residual = 8.4411498e-07, No Iterations 0
DICPCG:  Solving for T, Initial residual = 8.4411498e-07, Final residual = 8.4411498e-07, No Iterations 0
ExecutionTime = 2.37 s  ClockTime = 2 s

Time = 6.1

DICPCG:  Solving for T, Initial residual = 0.0001055544, Final residual = 8.1874073e-07, No Iterations 14
DICPCG:  Solving for T, Initial residual = 8.1874041e-07, Final residual = 8.1874041e-07, No Iterations 0
DICPCG:  Solving for T, Initial residual = 8.1874041e-07, Final residual = 8.1874041e-07, No Iterations 0
ExecutionTime = 2.39 s  ClockTime = 2 s

Time = 6.15

DICPCG:  Solving for T, Initial residual = 0.00010239643, Final residual = 7.9430189e-07, No Iterations 14
DICPCG:  Solving for T, Initial residual = 7.9430159e-07, Final residual = 7.9430159e-07, No Iterations 0
DICPCG:  Solving for T, Initial residual = 7.9430159e-07, Final residual = 7.9430159e-07, No Iterations 0
ExecutionTime = 2.4 s  ClockTime = 2 s

Time = 6.2

DICPCG:  Solving for T, Initial residual = 9.9332933e-05, Final residual = 7.7050958e-07, No Iterations 14
DICPCG:  Solving for T, Initial residual = 7.7050929e-07, Final residual = 7.7050929e-07, No Iterations 0
DICPCG:  Solving for T, Initial residual = 7.7050929e-07, Final residual = 7.7050929e-07, No Iterations 0
ExecutionTime = 2.42 s  ClockTime = 2 s

Time = 6.25

DICPCG:  Solving for T, Initial residual = 9.6361088e-05, Final residual = 7.4747215e-07, No Iterations 14
DICPCG:  Solving for T, Initial residual = 7.4747188e-07, Final residual = 7.4747188e-07, No Iterations 0
DICPCG:  Solving for T, Initial residual = 7.4747188e-07, Final residual = 7.4747188e-07, No Iterations 0
ExecutionTime = 2.44 s  ClockTime = 3 s

Time = 6.3

DICPCG:  Solving for T, Initial residual = 9.3478153e-05, Final residual = 7.2510175e-07, No Iterations 14
DICPCG:  Solving for T, Initial residual = 7.2510149e-07, Final residual = 7.2510149e-07, No Iterations 0
DICPCG:  Solving for T, Initial residual = 7.2510149e-07, Final residual = 7.2510149e-07, No Iterations 0
ExecutionTime = 2.45 s  ClockTime = 3 s

Time = 6.35

DICPCG:  Solving for T, Initial residual = 9.0681467e-05, Final residual = 7.0341203e-07, No Iterations 14
DICPCG:  Solving for T, Initial residual = 7.0341179e-07, Final residual = 7.0341179e-07, No Iterations 0
DICPCG:  Solving for T, Initial residual = 7.0341179e-07, Final residual = 7.0341179e-07, No Iterations 0
ExecutionTime = 2.47 s  ClockTime = 3 s

Time = 6.4

DICPCG:  Solving for T, Initial residual = 8.7968449e-05, Final residual = 6.8236535e-07, No Iterations 14
DICPCG:  Solving for T, Initial residual = 6.8236513e-07, Final residual = 6.8236513e-07, No Iterations 0
DICPCG:  Solving for T, Initial residual = 6.8236513e-07, Final residual = 6.8236513e-07, No Iterations 0
ExecutionTime = 2.49 s  ClockTime = 3 s

Time = 6.45

DICPCG:  Solving for T, Initial residual = 8.5336597e-05, Final residual = 6.619513e-07, No Iterations 14
DICPCG:  Solving for T, Initial residual = 6.6195109e-07, Final residual = 6.6195109e-07, No Iterations 0
DICPCG:  Solving for T, Initial residual = 6.6195109e-07, Final residual = 6.6195109e-07, No Iterations 0
ExecutionTime = 2.5 s  ClockTime = 3 s

Time = 6.5

DICPCG:  Solving for T, Initial residual = 8.2783482e-05, Final residual = 6.4214647e-07, No Iterations 14
DICPCG:  Solving for T, Initial residual = 6.4214627e-07, Final residual = 6.4214627e-07, No Iterations 0
DICPCG:  Solving for T, Initial residual = 6.4214627e-07, Final residual = 6.4214627e-07, No Iterations 0
ExecutionTime = 2.52 s  ClockTime = 3 s

Time = 6.55

DICPCG:  Solving for T, Initial residual = 8.030675e-05, Final residual = 6.229349e-07, No Iterations 14
DICPCG:  Solving for T, Initial residual = 6.2293471e-07, Final residual = 6.2293471e-07, No Iterations 0
DICPCG:  Solving for T, Initial residual = 6.2293471e-07, Final residual = 6.2293471e-07, No Iterations 0
ExecutionTime = 2.53 s  ClockTime = 3 s

Time = 6.6

DICPCG:  Solving for T, Initial residual = 7.7904115e-05, Final residual = 6.042977e-07, No Iterations 14
DICPCG:  Solving for T, Initial residual = 6.0429752e-07, Final residual = 6.0429752e-07, No Iterations 0
DICPCG:  Solving for T, Initial residual = 6.0429752e-07, Final residual = 6.0429752e-07, No Iterations 0
ExecutionTime = 2.55 s  ClockTime = 3 s

Time = 6.65

DICPCG:  Solving for T, Initial residual = 7.557336e-05, Final residual = 5.8621827e-07, No Iterations 14
DICPCG:  Solving for T, Initial residual = 5.862181e-07, Final residual = 5.862181e-07, No Iterations 0
DICPCG:  Solving for T, Initial residual = 5.862181e-07, Final residual = 5.862181e-07, No Iterations 0
ExecutionTime = 2.57 s  ClockTime = 3 s

Time = 6.7

DICPCG:  Solving for T, Initial residual = 7.3312336e-05, Final residual = 5.6867962e-07, No Iterations 14
DICPCG:  Solving for T, Initial residual = 5.6867947e-07, Final residual = 5.6867947e-07, No Iterations 0
DICPCG:  Solving for T, Initial residual = 5.6867947e-07, Final residual = 5.6867947e-07, No Iterations 0
ExecutionTime = 2.58 s  ClockTime = 3 s

Time = 6.75

DICPCG:  Solving for T, Initial residual = 7.1118955e-05, Final residual = 5.5166574e-07, No Iterations 14
DICPCG:  Solving for T, Initial residual = 5.5166559e-07, Final residual = 5.5166559e-07, No Iterations 0
DICPCG:  Solving for T, Initial residual = 5.5166559e-07, Final residual = 5.5166559e-07, No Iterations 0
ExecutionTime = 2.6 s  ClockTime = 3 s

Time = 6.8

DICPCG:  Solving for T, Initial residual = 6.8991195e-05, Final residual = 5.3516084e-07, No Iterations 14
DICPCG:  Solving for T, Initial residual = 5.351607e-07, Final residual = 5.351607e-07, No Iterations 0
DICPCG:  Solving for T, Initial residual = 5.351607e-07, Final residual = 5.351607e-07, No Iterations 0
ExecutionTime = 2.61 s  ClockTime = 3 s

Time = 6.85

DICPCG:  Solving for T, Initial residual = 6.6927093e-05, Final residual = 5.1914973e-07, No Iterations 14
DICPCG:  Solving for T, Initial residual = 5.191496e-07, Final residual = 5.191496e-07, No Iterations 0
DICPCG:  Solving for T, Initial residual = 5.191496e-07, Final residual = 5.191496e-07, No Iterations 0
ExecutionTime = 2.63 s  ClockTime = 3 s

Time = 6.9

DICPCG:  Solving for T, Initial residual = 6.4924743e-05, Final residual = 5.0361763e-07, No Iterations 14
DICPCG:  Solving for T, Initial residual = 5.0361751e-07, Final residual = 5.0361751e-07, No Iterations 0
DICPCG:  Solving for T, Initial residual = 5.0361751e-07, Final residual = 5.0361751e-07, No Iterations 0
ExecutionTime = 2.63 s  ClockTime = 3 s

Time = 6.95

DICPCG:  Solving for T, Initial residual = 6.2982299e-05, Final residual = 4.8855022e-07, No Iterations 14
DICPCG:  Solving for T, Initial residual = 4.8855011e-07, Final residual = 4.8855011e-07, No Iterations 0
DICPCG:  Solving for T, Initial residual = 4.8855011e-07, Final residual = 4.8855011e-07, No Iterations 0
ExecutionTime = 2.66 s  ClockTime = 3 s

Time = 7

DICPCG:  Solving for T, Initial residual = 6.1097969e-05, Final residual = 4.7393359e-07, No Iterations 14
DICPCG:  Solving for T, Initial residual = 4.7393348e-07, Final residual = 4.7393348e-07, No Iterations 0
DICPCG:  Solving for T, Initial residual = 4.7393348e-07, Final residual = 4.7393348e-07, No Iterations 0
ExecutionTime = 2.68 s  ClockTime = 3 s

Time = 7.05

DICPCG:  Solving for T, Initial residual = 5.9270013e-05, Final residual = 4.5975425e-07, No Iterations 14
DICPCG:  Solving for T, Initial residual = 4.5975415e-07, Final residual = 4.5975415e-07, No Iterations 0
DICPCG:  Solving for T, Initial residual = 4.5975415e-07, Final residual = 4.5975415e-07, No Iterations 0
ExecutionTime = 2.69 s  ClockTime = 3 s

Time = 7.1

DICPCG:  Solving for T, Initial residual = 5.7496746e-05, Final residual = 4.4599912e-07, No Iterations 14
DICPCG:  Solving for T, Initial residual = 4.4599903e-07, Final residual = 4.4599903e-07, No Iterations 0
DICPCG:  Solving for T, Initial residual = 4.4599903e-07, Final residual = 4.4599903e-07, No Iterations 0
ExecutionTime = 2.71 s  ClockTime = 3 s

Time = 7.15

DICPCG:  Solving for T, Initial residual = 5.5776531e-05, Final residual = 4.3265552e-07, No Iterations 14
DICPCG:  Solving for T, Initial residual = 4.3265543e-07, Final residual = 4.3265543e-07, No Iterations 0
DICPCG:  Solving for T, Initial residual = 4.3265543e-07, Final residual = 4.3265543e-07, No Iterations 0
ExecutionTime = 2.72 s  ClockTime = 3 s

Time = 7.2

DICPCG:  Solving for T, Initial residual = 5.4107781e-05, Final residual = 4.1971112e-07, No Iterations 14
DICPCG:  Solving for T, Initial residual = 4.1971104e-07, Final residual = 4.1971104e-07, No Iterations 0
DICPCG:  Solving for T, Initial residual = 4.1971104e-07, Final residual = 4.1971104e-07, No Iterations 0
ExecutionTime = 2.74 s  ClockTime = 3 s

Time = 7.25

DICPCG:  Solving for T, Initial residual = 5.2488957e-05, Final residual = 4.07154e-07, No Iterations 14
DICPCG:  Solving for T, Initial residual = 4.0715392e-07, Final residual = 4.0715392e-07, No Iterations 0
DICPCG:  Solving for T, Initial residual = 4.0715392e-07, Final residual = 4.0715392e-07, No Iterations 0
ExecutionTime = 2.75 s  ClockTime = 3 s

Time = 7.3

DICPCG:  Solving for T, Initial residual = 5.0918564e-05, Final residual = 9.7061322e-07, No Iterations 13
DICPCG:  Solving for T, Initial residual = 9.7061304e-07, Final residual = 9.7061304e-07, No Iterations 0
DICPCG:  Solving for T, Initial residual = 9.7061304e-07, Final residual = 9.7061304e-07, No Iterations 0
ExecutionTime = 2.77 s  ClockTime = 3 s

Time = 7.35

DICPCG:  Solving for T, Initial residual = 4.9383809e-05, Final residual = 9.2095813e-07, No Iterations 13
DICPCG:  Solving for T, Initial residual = 9.2095795e-07, Final residual = 9.2095795e-07, No Iterations 0
DICPCG:  Solving for T, Initial residual = 9.2095795e-07, Final residual = 9.2095795e-07, No Iterations 0
ExecutionTime = 2.78 s  ClockTime = 3 s

Time = 7.4

DICPCG:  Solving for T, Initial residual = 4.7906232e-05, Final residual = 8.7919218e-07, No Iterations 13
DICPCG:  Solving for T, Initial residual = 8.7919202e-07, Final residual = 8.7919202e-07, No Iterations 0
DICPCG:  Solving for T, Initial residual = 8.7919202e-07, Final residual = 8.7919202e-07, No Iterations 0
ExecutionTime = 2.8 s  ClockTime = 3 s

Time = 7.45

DICPCG:  Solving for T, Initial residual = 4.6472892e-05, Final residual = 8.922943e-07, No Iterations 13
DICPCG:  Solving for T, Initial residual = 8.9229414e-07, Final residual = 8.9229414e-07, No Iterations 0
DICPCG:  Solving for T, Initial residual = 8.9229414e-07, Final residual = 8.9229414e-07, No Iterations 0
ExecutionTime = 2.81 s  ClockTime = 3 s

Time = 7.5

DICPCG:  Solving for T, Initial residual = 4.5082356e-05, Final residual = 8.9980566e-07, No Iterations 13
DICPCG:  Solving for T, Initial residual = 8.9980551e-07, Final residual = 8.9980551e-07, No Iterations 0
DICPCG:  Solving for T, Initial residual = 8.9980551e-07, Final residual = 8.9980551e-07, No Iterations 0
ExecutionTime = 2.83 s  ClockTime = 3 s

Time = 7.55

DICPCG:  Solving for T, Initial residual = 4.3732652e-05, Final residual = 8.4265784e-07, No Iterations 13
DICPCG:  Solving for T, Initial residual = 8.426579e-07, Final residual = 8.426579e-07, No Iterations 0
DICPCG:  Solving for T, Initial residual = 8.426579e-07, Final residual = 8.426579e-07, No Iterations 0
ExecutionTime = 2.84 s  ClockTime = 3 s

Time = 7.6

DICPCG:  Solving for T, Initial residual = 4.242491e-05, Final residual = 8.3616889e-07, No Iterations 13
DICPCG:  Solving for T, Initial residual = 8.3616905e-07, Final residual = 8.3616905e-07, No Iterations 0
DICPCG:  Solving for T, Initial residual = 8.3616905e-07, Final residual = 8.3616905e-07, No Iterations 0
ExecutionTime = 2.86 s  ClockTime = 3 s

Time = 7.65

DICPCG:  Solving for T, Initial residual = 4.1155128e-05, Final residual = 7.9840836e-07, No Iterations 13
DICPCG:  Solving for T, Initial residual = 7.9840836e-07, Final residual = 7.9840836e-07, No Iterations 0
DICPCG:  Solving for T, Initial residual = 7.9840836e-07, Final residual = 7.9840836e-07, No Iterations 0
ExecutionTime = 2.87 s  ClockTime = 3 s

Time = 7.7

DICPCG:  Solving for T, Initial residual = 3.9924245e-05, Final residual = 7.9400512e-07, No Iterations 13
DICPCG:  Solving for T, Initial residual = 7.9400511e-07, Final residual = 7.9400511e-07, No Iterations 0
DICPCG:  Solving for T, Initial residual = 7.9400511e-07, Final residual = 7.9400511e-07, No Iterations 0
ExecutionTime = 2.89 s  ClockTime = 3 s

Time = 7.75

DICPCG:  Solving for T, Initial residual = 3.8729218e-05, Final residual = 7.5040268e-07, No Iterations 13
DICPCG:  Solving for T, Initial residual = 7.5040269e-07, Final residual = 7.5040269e-07, No Iterations 0
DICPCG:  Solving for T, Initial residual = 7.5040269e-07, Final residual = 7.5040269e-07, No Iterations 0
ExecutionTime = 2.9 s  ClockTime = 3 s

Time = 7.8

DICPCG:  Solving for T, Initial residual = 3.7570981e-05, Final residual = 7.4625525e-07, No Iterations 13
DICPCG:  Solving for T, Initial residual = 7.4625525e-07, Final residual = 7.4625525e-07, No Iterations 0
DICPCG:  Solving for T, Initial residual = 7.4625525e-07, Final residual = 7.4625525e-07, No Iterations 0
ExecutionTime = 2.92 s  ClockTime = 3 s

Time = 7.85

DICPCG:  Solving for T, Initial residual = 3.644643e-05, Final residual = 7.0674988e-07, No Iterations 13
DICPCG:  Solving for T, Initial residual = 7.0674989e-07, Final residual = 7.0674989e-07, No Iterations 0
DICPCG:  Solving for T, Initial residual = 7.0674989e-07, Final residual = 7.0674989e-07, No Iterations 0
ExecutionTime = 2.93 s  ClockTime = 3 s

Time = 7.9

DICPCG:  Solving for T, Initial residual = 3.5356431e-05, Final residual = 7.0325237e-07, No Iterations 13
DICPCG:  Solving for T, Initial residual = 7.0325236e-07, Final residual = 7.0325236e-07, No Iterations 0
DICPCG:  Solving for T, Initial residual = 7.0325236e-07, Final residual = 7.0325236e-07, No Iterations 0
ExecutionTime = 2.95 s  ClockTime = 3 s

Time = 7.95

DICPCG:  Solving for T, Initial residual = 3.4298156e-05, Final residual = 6.6484694e-07, No Iterations 13
DICPCG:  Solving for T, Initial residual = 6.6484695e-07, Final residual = 6.6484695e-07, No Iterations 0
DICPCG:  Solving for T, Initial residual = 6.6484695e-07, Final residual = 6.6484695e-07, No Iterations 0
ExecutionTime = 2.96 s  ClockTime = 3 s

Time = 8

DICPCG:  Solving for T, Initial residual = 3.3272411e-05, Final residual = 6.6212483e-07, No Iterations 13
DICPCG:  Solving for T, Initial residual = 6.6212483e-07, Final residual = 6.6212483e-07, No Iterations 0
DICPCG:  Solving for T, Initial residual = 6.6212483e-07, Final residual = 6.6212483e-07, No Iterations 0
ExecutionTime = 2.98 s  ClockTime = 3 s

Time = 8.05

DICPCG:  Solving for T, Initial residual = 3.2276518e-05, Final residual = 9.7022805e-07, No Iterations 12
DICPCG:  Solving for T, Initial residual = 9.7022804e-07, Final residual = 9.7022804e-07, No Iterations 0
DICPCG:  Solving for T, Initial residual = 9.7022804e-07, Final residual = 9.7022804e-07, No Iterations 0
ExecutionTime = 2.99 s  ClockTime = 3 s

Time = 8.1

DICPCG:  Solving for T, Initial residual = 3.1297677e-05, Final residual = 9.9287534e-07, No Iterations 12
DICPCG:  Solving for T, Initial residual = 9.9287534e-07, Final residual = 9.9287534e-07, No Iterations 0
DICPCG:  Solving for T, Initial residual = 9.9287534e-07, Final residual = 9.9287534e-07, No Iterations 0
ExecutionTime = 3.01 s  ClockTime = 3 s

Time = 8.15

DICPCG:  Solving for T, Initial residual = 3.0359118e-05, Final residual = 9.4960326e-07, No Iterations 12
DICPCG:  Solving for T, Initial residual = 9.4960326e-07, Final residual = 9.4960326e-07, No Iterations 0
DICPCG:  Solving for T, Initial residual = 9.4960326e-07, Final residual = 9.4960326e-07, No Iterations 0
ExecutionTime = 3.02 s  ClockTime = 3 s

Time = 8.2

DICPCG:  Solving for T, Initial residual = 2.9451349e-05, Final residual = 9.3886884e-07, No Iterations 12
DICPCG:  Solving for T, Initial residual = 9.3886884e-07, Final residual = 9.3886884e-07, No Iterations 0
DICPCG:  Solving for T, Initial residual = 9.3886884e-07, Final residual = 9.3886884e-07, No Iterations 0
ExecutionTime = 3.03 s  ClockTime = 3 s

Time = 8.25

DICPCG:  Solving for T, Initial residual = 2.8570143e-05, Final residual = 9.2755387e-07, No Iterations 12
DICPCG:  Solving for T, Initial residual = 9.2755387e-07, Final residual = 9.2755387e-07, No Iterations 0
DICPCG:  Solving for T, Initial residual = 9.2755387e-07, Final residual = 9.2755387e-07, No Iterations 0
ExecutionTime = 3.05 s  ClockTime = 3 s

Time = 8.3

DICPCG:  Solving for T, Initial residual = 2.7714658e-05, Final residual = 8.7599891e-07, No Iterations 12
DICPCG:  Solving for T, Initial residual = 8.7599891e-07, Final residual = 8.7599891e-07, No Iterations 0
DICPCG:  Solving for T, Initial residual = 8.7599891e-07, Final residual = 8.7599891e-07, No Iterations 0
ExecutionTime = 3.07 s  ClockTime = 3 s

Time = 8.35

DICPCG:  Solving for T, Initial residual = 2.6886079e-05, Final residual = 8.7047393e-07, No Iterations 12
DICPCG:  Solving for T, Initial residual = 8.7047393e-07, Final residual = 8.7047393e-07, No Iterations 0
DICPCG:  Solving for T, Initial residual = 8.7047393e-07, Final residual = 8.7047393e-07, No Iterations 0
ExecutionTime = 3.08 s  ClockTime = 3 s

Time = 8.4

DICPCG:  Solving for T, Initial residual = 2.6081136e-05, Final residual = 8.3954206e-07, No Iterations 12
DICPCG:  Solving for T, Initial residual = 8.3954206e-07, Final residual = 8.3954206e-07, No Iterations 0
DICPCG:  Solving for T, Initial residual = 8.3954206e-07, Final residual = 8.3954206e-07, No Iterations 0
ExecutionTime = 3.1 s  ClockTime = 3 s

Time = 8.45

DICPCG:  Solving for T, Initial residual = 2.5300935e-05, Final residual = 8.231618e-07, No Iterations 12
DICPCG:  Solving for T, Initial residual = 8.231618e-07, Final residual = 8.231618e-07, No Iterations 0
DICPCG:  Solving for T, Initial residual = 8.231618e-07, Final residual = 8.231618e-07, No Iterations 0
ExecutionTime = 3.12 s  ClockTime = 3 s

Time = 8.5

DICPCG:  Solving for T, Initial residual = 2.4543721e-05, Final residual = 9.6781513e-07, No Iterations 11
DICPCG:  Solving for T, Initial residual = 9.6781513e-07, Final residual = 9.6781513e-07, No Iterations 0
DICPCG:  Solving for T, Initial residual = 9.6781513e-07, Final residual = 9.6781513e-07, No Iterations 0
ExecutionTime = 3.13 s  ClockTime = 3 s

Time = 8.55

DICPCG:  Solving for T, Initial residual = 2.3799909e-05, Final residual = 9.9296351e-07, No Iterations 11
DICPCG:  Solving for T, Initial residual = 9.929635e-07, Final residual = 9.929635e-07, No Iterations 0
DICPCG:  Solving for T, Initial residual = 9.929635e-07, Final residual = 9.929635e-07, No Iterations 0
ExecutionTime = 3.15 s  ClockTime = 3 s

Time = 8.6

DICPCG:  Solving for T, Initial residual = 2.3086696e-05, Final residual = 7.997087e-07, No Iterations 12
DICPCG:  Solving for T, Initial residual = 7.997087e-07, Final residual = 7.997087e-07, No Iterations 0
DICPCG:  Solving for T, Initial residual = 7.997087e-07, Final residual = 7.997087e-07, No Iterations 0
ExecutionTime = 3.17 s  ClockTime = 3 s

Time = 8.65

DICPCG:  Solving for T, Initial residual = 2.2403874e-05, Final residual = 9.0147112e-07, No Iterations 11
DICPCG:  Solving for T, Initial residual = 9.0147112e-07, Final residual = 9.0147112e-07, No Iterations 0
DICPCG:  Solving for T, Initial residual = 9.0147112e-07, Final residual = 9.0147112e-07, No Iterations 0
ExecutionTime = 3.19 s  ClockTime = 3 s

Time = 8.7

DICPCG:  Solving for T, Initial residual = 2.1726838e-05, Final residual = 9.3575384e-07, No Iterations 11
DICPCG:  Solving for T, Initial residual = 9.3575383e-07, Final residual = 9.3575383e-07, No Iterations 0
DICPCG:  Solving for T, Initial residual = 9.3575383e-07, Final residual = 9.3575383e-07, No Iterations 0
ExecutionTime = 3.21 s  ClockTime = 3 s

Time = 8.75

DICPCG:  Solving for T, Initial residual = 2.1076077e-05, Final residual = 9.4102655e-07, No Iterations 11
DICPCG:  Solving for T, Initial residual = 9.4102656e-07, Final residual = 9.4102656e-07, No Iterations 0
DICPCG:  Solving for T, Initial residual = 9.4102656e-07, Final residual = 9.4102656e-07, No Iterations 0
ExecutionTime = 3.22 s  ClockTime = 3 s

Time = 8.8

DICPCG:  Solving for T, Initial residual = 2.0445541e-05, Final residual = 8.8479509e-07, No Iterations 11
DICPCG:  Solving for T, Initial residual = 8.8479509e-07, Final residual = 8.8479509e-07, No Iterations 0
DICPCG:  Solving for T, Initial residual = 8.8479509e-07, Final residual = 8.8479509e-07, No Iterations 0
ExecutionTime = 3.24 s  ClockTime = 3 s

Time = 8.85

DICPCG:  Solving for T, Initial residual = 1.9834464e-05, Final residual = 8.6923486e-07, No Iterations 11
DICPCG:  Solving for T, Initial residual = 8.6923487e-07, Final residual = 8.6923487e-07, No Iterations 0
DICPCG:  Solving for T, Initial residual = 8.6923487e-07, Final residual = 8.6923487e-07, No Iterations 0
ExecutionTime = 3.25 s  ClockTime = 3 s

Time = 8.9

DICPCG:  Solving for T, Initial residual = 1.9241269e-05, Final residual = 8.4026437e-07, No Iterations 11
DICPCG:  Solving for T, Initial residual = 8.4026437e-07, Final residual = 8.4026437e-07, No Iterations 0
DICPCG:  Solving for T, Initial residual = 8.4026437e-07, Final residual = 8.4026437e-07, No Iterations 0
ExecutionTime = 3.27 s  ClockTime = 3 s

Time = 8.95

DICPCG:  Solving for T, Initial residual = 1.8665237e-05, Final residual = 8.2045628e-07, No Iterations 11
DICPCG:  Solving for T, Initial residual = 8.2045628e-07, Final residual = 8.2045628e-07, No Iterations 0
DICPCG:  Solving for T, Initial residual = 8.2045628e-07, Final residual = 8.2045628e-07, No Iterations 0
ExecutionTime = 3.29 s  ClockTime = 3 s

Time = 9

DICPCG:  Solving for T, Initial residual = 1.8107372e-05, Final residual = 7.9311536e-07, No Iterations 11
DICPCG:  Solving for T, Initial residual = 7.9311536e-07, Final residual = 7.9311536e-07, No Iterations 0
DICPCG:  Solving for T, Initial residual = 7.9311536e-07, Final residual = 7.9311536e-07, No Iterations 0
ExecutionTime = 3.3 s  ClockTime = 3 s

Time = 9.05

DICPCG:  Solving for T, Initial residual = 1.7564977e-05, Final residual = 7.7587282e-07, No Iterations 11
DICPCG:  Solving for T, Initial residual = 7.7587282e-07, Final residual = 7.7587282e-07, No Iterations 0
DICPCG:  Solving for T, Initial residual = 7.7587282e-07, Final residual = 7.7587282e-07, No Iterations 0
ExecutionTime = 3.32 s  ClockTime = 3 s

Time = 9.1

DICPCG:  Solving for T, Initial residual = 1.7039841e-05, Final residual = 7.5293775e-07, No Iterations 11
DICPCG:  Solving for T, Initial residual = 7.5293775e-07, Final residual = 7.5293775e-07, No Iterations 0
DICPCG:  Solving for T, Initial residual = 7.5293775e-07, Final residual = 7.5293775e-07, No Iterations 0
ExecutionTime = 3.34 s  ClockTime = 3 s

Time = 9.15

DICPCG:  Solving for T, Initial residual = 1.652956e-05, Final residual = 7.3456649e-07, No Iterations 11
DICPCG:  Solving for T, Initial residual = 7.345665e-07, Final residual = 7.345665e-07, No Iterations 0
DICPCG:  Solving for T, Initial residual = 7.345665e-07, Final residual = 7.345665e-07, No Iterations 0
ExecutionTime = 3.36 s  ClockTime = 3 s

Time = 9.2

DICPCG:  Solving for T, Initial residual = 1.6035055e-05, Final residual = 7.1252992e-07, No Iterations 11
DICPCG:  Solving for T, Initial residual = 7.1252992e-07, Final residual = 7.1252992e-07, No Iterations 0
DICPCG:  Solving for T, Initial residual = 7.1252992e-07, Final residual = 7.1252992e-07, No Iterations 0
ExecutionTime = 3.37 s  ClockTime = 3 s

Time = 9.25

DICPCG:  Solving for T, Initial residual = 1.5555229e-05, Final residual = 6.9257606e-07, No Iterations 11
DICPCG:  Solving for T, Initial residual = 6.9257606e-07, Final residual = 6.9257606e-07, No Iterations 0
DICPCG:  Solving for T, Initial residual = 6.9257606e-07, Final residual = 6.9257606e-07, No Iterations 0
ExecutionTime = 3.39 s  ClockTime = 3 s

Time = 9.3

DICPCG:  Solving for T, Initial residual = 1.5089809e-05, Final residual = 6.718112e-07, No Iterations 11
DICPCG:  Solving for T, Initial residual = 6.718112e-07, Final residual = 6.718112e-07, No Iterations 0
DICPCG:  Solving for T, Initial residual = 6.718112e-07, Final residual = 6.718112e-07, No Iterations 0
ExecutionTime = 3.4 s  ClockTime = 3 s

Time = 9.35

DICPCG:  Solving for T, Initial residual = 1.4638358e-05, Final residual = 6.5278307e-07, No Iterations 11
DICPCG:  Solving for T, Initial residual = 6.5278307e-07, Final residual = 6.5278307e-07, No Iterations 0
DICPCG:  Solving for T, Initial residual = 6.5278307e-07, Final residual = 6.5278307e-07, No Iterations 0
ExecutionTime = 3.42 s  ClockTime = 3 s

Time = 9.4

DICPCG:  Solving for T, Initial residual = 1.4200371e-05, Final residual = 6.3126258e-07, No Iterations 11
DICPCG:  Solving for T, Initial residual = 6.3126258e-07, Final residual = 6.3126258e-07, No Iterations 0
DICPCG:  Solving for T, Initial residual = 6.3126258e-07, Final residual = 6.3126258e-07, No Iterations 0
ExecutionTime = 3.43 s  ClockTime = 4 s

Time = 9.45

DICPCG:  Solving for T, Initial residual = 1.3775541e-05, Final residual = 6.1552697e-07, No Iterations 11
DICPCG:  Solving for T, Initial residual = 6.1552697e-07, Final residual = 6.1552697e-07, No Iterations 0
DICPCG:  Solving for T, Initial residual = 6.1552697e-07, Final residual = 6.1552697e-07, No Iterations 0
ExecutionTime = 3.44 s  ClockTime = 4 s

Time = 9.5

DICPCG:  Solving for T, Initial residual = 1.3363351e-05, Final residual = 9.9849921e-07, No Iterations 10
DICPCG:  Solving for T, Initial residual = 9.9849921e-07, Final residual = 9.9849921e-07, No Iterations 0
DICPCG:  Solving for T, Initial residual = 9.9849921e-07, Final residual = 9.9849921e-07, No Iterations 0
ExecutionTime = 3.46 s  ClockTime = 4 s

Time = 9.55

DICPCG:  Solving for T, Initial residual = 1.2965654e-05, Final residual = 6.8305849e-07, No Iterations 11
DICPCG:  Solving for T, Initial residual = 6.8305849e-07, Final residual = 6.8305849e-07, No Iterations 0
DICPCG:  Solving for T, Initial residual = 6.8305849e-07, Final residual = 6.8305849e-07, No Iterations 0
ExecutionTime = 3.47 s  ClockTime = 4 s

Time = 9.6

DICPCG:  Solving for T, Initial residual = 1.2576906e-05, Final residual = 9.6502054e-07, No Iterations 10
DICPCG:  Solving for T, Initial residual = 9.6502054e-07, Final residual = 9.6502054e-07, No Iterations 0
DICPCG:  Solving for T, Initial residual = 9.6502054e-07, Final residual = 9.6502054e-07, No Iterations 0
ExecutionTime = 3.49 s  ClockTime = 4 s

Time = 9.65

DICPCG:  Solving for T, Initial residual = 1.2200078e-05, Final residual = 6.4206351e-07, No Iterations 11
DICPCG:  Solving for T, Initial residual = 6.420635e-07, Final residual = 6.420635e-07, No Iterations 0
DICPCG:  Solving for T, Initial residual = 6.420635e-07, Final residual = 6.420635e-07, No Iterations 0
ExecutionTime = 3.5 s  ClockTime = 4 s

Time = 9.7

DICPCG:  Solving for T, Initial residual = 1.1835617e-05, Final residual = 9.0217001e-07, No Iterations 10
DICPCG:  Solving for T, Initial residual = 9.0217e-07, Final residual = 9.0217e-07, No Iterations 0
DICPCG:  Solving for T, Initial residual = 9.0217e-07, Final residual = 9.0217e-07, No Iterations 0
ExecutionTime = 3.52 s  ClockTime = 4 s

Time = 9.75

DICPCG:  Solving for T, Initial residual = 1.1482322e-05, Final residual = 6.0577778e-07, No Iterations 11
DICPCG:  Solving for T, Initial residual = 6.0577778e-07, Final residual = 6.0577778e-07, No Iterations 0
DICPCG:  Solving for T, Initial residual = 6.0577778e-07, Final residual = 6.0577778e-07, No Iterations 0
ExecutionTime = 3.53 s  ClockTime = 4 s

Time = 9.8

DICPCG:  Solving for T, Initial residual = 1.1138093e-05, Final residual = 8.2066211e-07, No Iterations 10
DICPCG:  Solving for T, Initial residual = 8.2066211e-07, Final residual = 8.2066211e-07, No Iterations 0
DICPCG:  Solving for T, Initial residual = 8.2066211e-07, Final residual = 8.2066211e-07, No Iterations 0
ExecutionTime = 3.55 s  ClockTime = 4 s

Time = 9.85

DICPCG:  Solving for T, Initial residual = 1.0806727e-05, Final residual = 9.7994319e-07, No Iterations 10
DICPCG:  Solving for T, Initial residual = 9.799432e-07, Final residual = 9.799432e-07, No Iterations 0
DICPCG:  Solving for T, Initial residual = 9.799432e-07, Final residual = 9.799432e-07, No Iterations 0
ExecutionTime = 3.56 s  ClockTime = 4 s

Time = 9.9

DICPCG:  Solving for T, Initial residual = 1.048192e-05, Final residual = 5.623893e-07, No Iterations 11
DICPCG:  Solving for T, Initial residual = 5.623893e-07, Final residual = 5.623893e-07, No Iterations 0
DICPCG:  Solving for T, Initial residual = 5.623893e-07, Final residual = 5.623893e-07, No Iterations 0
ExecutionTime = 3.58 s  ClockTime = 4 s

Time = 9.95

DICPCG:  Solving for T, Initial residual = 1.0168912e-05, Final residual = 7.7194228e-07, No Iterations 10
DICPCG:  Solving for T, Initial residual = 7.7194228e-07, Final residual = 7.7194228e-07, No Iterations 0
DICPCG:  Solving for T, Initial residual = 7.7194228e-07, Final residual = 7.7194228e-07, No Iterations 0
ExecutionTime = 3.59 s  ClockTime = 4 s

Time = 10

DICPCG:  Solving for T, Initial residual = 9.8630365e-06, Final residual = 8.5194818e-07, No Iterations 10
DICPCG:  Solving for T, Initial residual = 8.5194819e-07, Final residual = 8.5194819e-07, No Iterations 0
DICPCG:  Solving for T, Initial residual = 8.5194819e-07, Final residual = 8.5194819e-07, No Iterations 0
ExecutionTime = 3.61 s  ClockTime = 4 s

Time = 10.05

DICPCG:  Solving for T, Initial residual = 9.5748945e-06, Final residual = 9.4569476e-07, No Iterations 10
DICPCG:  Solving for T, Initial residual = 9.4569475e-07, Final residual = 9.4569475e-07, No Iterations 0
DICPCG:  Solving for T, Initial residual = 9.4569475e-07, Final residual = 9.4569475e-07, No Iterations 0
ExecutionTime = 3.62 s  ClockTime = 4 s

Time = 10.1

DICPCG:  Solving for T, Initial residual = 9.2874489e-06, Final residual = 8.8452729e-07, No Iterations 10
DICPCG:  Solving for T, Initial residual = 8.845273e-07, Final residual = 8.845273e-07, No Iterations 0
DICPCG:  Solving for T, Initial residual = 8.845273e-07, Final residual = 8.845273e-07, No Iterations 0
ExecutionTime = 3.64 s  ClockTime = 4 s

Time = 10.15

DICPCG:  Solving for T, Initial residual = 9.0075673e-06, Final residual = 8.4903756e-07, No Iterations 10
DICPCG:  Solving for T, Initial residual = 8.4903755e-07, Final residual = 8.4903755e-07, No Iterations 0
DICPCG:  Solving for T, Initial residual = 8.4903755e-07, Final residual = 8.4903755e-07, No Iterations 0
ExecutionTime = 3.66 s  ClockTime = 4 s

Time = 10.2

DICPCG:  Solving for T, Initial residual = 8.7417433e-06, Final residual = 8.4292094e-07, No Iterations 10
DICPCG:  Solving for T, Initial residual = 8.4292094e-07, Final residual = 8.4292094e-07, No Iterations 0
DICPCG:  Solving for T, Initial residual = 8.4292094e-07, Final residual = 8.4292094e-07, No Iterations 0
ExecutionTime = 3.67 s  ClockTime = 4 s

Time = 10.25

DICPCG:  Solving for T, Initial residual = 8.4738912e-06, Final residual = 9.8678607e-07, No Iterations 9
DICPCG:  Solving for T, Initial residual = 9.8678606e-07, Final residual = 9.8678606e-07, No Iterations 0
DICPCG:  Solving for T, Initial residual = 9.8678606e-07, Final residual = 9.8678606e-07, No Iterations 0
ExecutionTime = 3.69 s  ClockTime = 4 s

Time = 10.3

DICPCG:  Solving for T, Initial residual = 8.2331653e-06, Final residual = 9.5354049e-07, No Iterations 9
DICPCG:  Solving for T, Initial residual = 9.5354049e-07, Final residual = 9.5354049e-07, No Iterations 0
DICPCG:  Solving for T, Initial residual = 9.5354049e-07, Final residual = 9.5354049e-07, No Iterations 0
ExecutionTime = 3.7 s  ClockTime = 4 s

Time = 10.35

DICPCG:  Solving for T, Initial residual = 7.9812417e-06, Final residual = 8.6370106e-07, No Iterations 9
DICPCG:  Solving for T, Initial residual = 8.6370106e-07, Final residual = 8.6370106e-07, No Iterations 0
DICPCG:  Solving for T, Initial residual = 8.6370106e-07, Final residual = 8.6370106e-07, No Iterations 0
ExecutionTime = 3.72 s  ClockTime = 4 s

Time = 10.4

DICPCG:  Solving for T, Initial residual = 7.7487907e-06, Final residual = 7.1573027e-07, No Iterations 9
DICPCG:  Solving for T, Initial residual = 7.1573028e-07, Final residual = 7.1573028e-07, No Iterations 0
DICPCG:  Solving for T, Initial residual = 7.1573028e-07, Final residual = 7.1573028e-07, No Iterations 0
ExecutionTime = 3.73 s  ClockTime = 4 s

Time = 10.45

DICPCG:  Solving for T, Initial residual = 7.5087805e-06, Final residual = 8.5986222e-07, No Iterations 9
DICPCG:  Solving for T, Initial residual = 8.5986221e-07, Final residual = 8.5986221e-07, No Iterations 0
DICPCG:  Solving for T, Initial residual = 8.5986221e-07, Final residual = 8.5986221e-07, No Iterations 0
ExecutionTime = 3.75 s  ClockTime = 4 s

Time = 10.5

DICPCG:  Solving for T, Initial residual = 7.2925828e-06, Final residual = 7.693311e-07, No Iterations 9
DICPCG:  Solving for T, Initial residual = 7.693311e-07, Final residual = 7.693311e-07, No Iterations 0
DICPCG:  Solving for T, Initial residual = 7.693311e-07, Final residual = 7.693311e-07, No Iterations 0
ExecutionTime = 3.77 s  ClockTime = 4 s

Time = 10.55

DICPCG:  Solving for T, Initial residual = 7.0670298e-06, Final residual = 7.8443061e-07, No Iterations 9
DICPCG:  Solving for T, Initial residual = 7.8443061e-07, Final residual = 7.8443061e-07, No Iterations 0
DICPCG:  Solving for T, Initial residual = 7.8443061e-07, Final residual = 7.8443061e-07, No Iterations 0
ExecutionTime = 3.78 s  ClockTime = 4 s

Time = 10.6

DICPCG:  Solving for T, Initial residual = 6.8620363e-06, Final residual = 7.0507666e-07, No Iterations 9
[...]
ExecutionTime = 23.41 s  ClockTime = 23 s

Time = 97.4

DICPCG:  Solving for T, Initial residual = 9.0720226e-07, Final residual = 9.0720226e-07, No Iterations 0
DICPCG:  Solving for T, Initial residual = 9.0720226e-07, Final residual = 9.0720226e-07, No Iterations 0
DICPCG:  Solving for T, Initial residual = 9.0720226e-07, Final residual = 9.0720226e-07, No Iterations 0
ExecutionTime = 23.42 s  ClockTime = 24 s

Time = 97.45

DICPCG:  Solving for T, Initial residual = 9.0720226e-07, Final residual = 9.0720226e-07, No Iterations 0
DICPCG:  Solving for T, Initial residual = 9.0720226e-07, Final residual = 9.0720226e-07, No Iterations 0
DICPCG:  Solving for T, Initial residual = 9.0720226e-07, Final residual = 9.0720226e-07, No Iterations 0
ExecutionTime = 23.43 s  ClockTime = 24 s

Time = 97.5

DICPCG:  Solving for T, Initial residual = 9.0720226e-07, Final residual = 9.0720226e-07, No Iterations 0
DICPCG:  Solving for T, Initial residual = 9.0720226e-07, Final residual = 9.0720226e-07, No Iterations 0
DICPCG:  Solving for T, Initial residual = 9.0720226e-07, Final residual = 9.0720226e-07, No Iterations 0
ExecutionTime = 23.44 s  ClockTime = 24 s

Time = 97.55

DICPCG:  Solving for T, Initial residual = 9.0720226e-07, Final residual = 9.0720226e-07, No Iterations 0
DICPCG:  Solving for T, Initial residual = 9.0720226e-07, Final residual = 9.0720226e-07, No Iterations 0
DICPCG:  Solving for T, Initial residual = 9.0720226e-07, Final residual = 9.0720226e-07, No Iterations 0
ExecutionTime = 23.45 s  ClockTime = 24 s

Time = 97.6

DICPCG:  Solving for T, Initial residual = 9.0720226e-07, Final residual = 9.0720226e-07, No Iterations 0
DICPCG:  Solving for T, Initial residual = 9.0720226e-07, Final residual = 9.0720226e-07, No Iterations 0
DICPCG:  Solving for T, Initial residual = 9.0720226e-07, Final residual = 9.0720226e-07, No Iterations 0
ExecutionTime = 23.46 s  ClockTime = 24 s

Time = 97.65

DICPCG:  Solving for T, Initial residual = 9.0720226e-07, Final residual = 9.0720226e-07, No Iterations 0
DICPCG:  Solving for T, Initial residual = 9.0720226e-07, Final residual = 9.0720226e-07, No Iterations 0
DICPCG:  Solving for T, Initial residual = 9.0720226e-07, Final residual = 9.0720226e-07, No Iterations 0
ExecutionTime = 23.47 s  ClockTime = 24 s

Time = 97.7

DICPCG:  Solving for T, Initial residual = 9.0720226e-07, Final residual = 9.0720226e-07, No Iterations 0
DICPCG:  Solving for T, Initial residual = 9.0720226e-07, Final residual = 9.0720226e-07, No Iterations 0
DICPCG:  Solving for T, Initial residual = 9.0720226e-07, Final residual = 9.0720226e-07, No Iterations 0
ExecutionTime = 23.48 s  ClockTime = 24 s

Time = 97.75

DICPCG:  Solving for T, Initial residual = 9.0720226e-07, Final residual = 9.0720226e-07, No Iterations 0
DICPCG:  Solving for T, Initial residual = 9.0720226e-07, Final residual = 9.0720226e-07, No Iterations 0
DICPCG:  Solving for T, Initial residual = 9.0720226e-07, Final residual = 9.0720226e-07, No Iterations 0
ExecutionTime = 23.49 s  ClockTime = 24 s

Time = 97.8

DICPCG:  Solving for T, Initial residual = 9.0720226e-07, Final residual = 9.0720226e-07, No Iterations 0
DICPCG:  Solving for T, Initial residual = 9.0720226e-07, Final residual = 9.0720226e-07, No Iterations 0
DICPCG:  Solving for T, Initial residual = 9.0720226e-07, Final residual = 9.0720226e-07, No Iterations 0
ExecutionTime = 23.5 s  ClockTime = 24 s

Time = 97.85

DICPCG:  Solving for T, Initial residual = 9.0720226e-07, Final residual = 9.0720226e-07, No Iterations 0
DICPCG:  Solving for T, Initial residual = 9.0720226e-07, Final residual = 9.0720226e-07, No Iterations 0
DICPCG:  Solving for T, Initial residual = 9.0720226e-07, Final residual = 9.0720226e-07, No Iterations 0
ExecutionTime = 23.51 s  ClockTime = 24 s

Time = 97.9

DICPCG:  Solving for T, Initial residual = 9.0720226e-07, Final residual = 9.0720226e-07, No Iterations 0
DICPCG:  Solving for T, Initial residual = 9.0720226e-07, Final residual = 9.0720226e-07, No Iterations 0
DICPCG:  Solving for T, Initial residual = 9.0720226e-07, Final residual = 9.0720226e-07, No Iterations 0
ExecutionTime = 23.52 s  ClockTime = 24 s

Time = 97.95

DICPCG:  Solving for T, Initial residual = 9.0720226e-07, Final residual = 9.0720226e-07, No Iterations 0
DICPCG:  Solving for T, Initial residual = 9.0720226e-07, Final residual = 9.0720226e-07, No Iterations 0
DICPCG:  Solving for T, Initial residual = 9.0720226e-07, Final residual = 9.0720226e-07, No Iterations 0
ExecutionTime = 23.54 s  ClockTime = 24 s

Time = 98

DICPCG:  Solving for T, Initial residual = 9.0720226e-07, Final residual = 9.0720226e-07, No Iterations 0
DICPCG:  Solving for T, Initial residual = 9.0720226e-07, Final residual = 9.0720226e-07, No Iterations 0
DICPCG:  Solving for T, Initial residual = 9.0720226e-07, Final residual = 9.0720226e-07, No Iterations 0
ExecutionTime = 23.55 s  ClockTime = 24 s

Time = 98.05

DICPCG:  Solving for T, Initial residual = 9.0720226e-07, Final residual = 9.0720226e-07, No Iterations 0
DICPCG:  Solving for T, Initial residual = 9.0720226e-07, Final residual = 9.0720226e-07, No Iterations 0
DICPCG:  Solving for T, Initial residual = 9.0720226e-07, Final residual = 9.0720226e-07, No Iterations 0
ExecutionTime = 23.56 s  ClockTime = 24 s

Time = 98.1

DICPCG:  Solving for T, Initial residual = 9.0720226e-07, Final residual = 9.0720226e-07, No Iterations 0
DICPCG:  Solving for T, Initial residual = 9.0720226e-07, Final residual = 9.0720226e-07, No Iterations 0
DICPCG:  Solving for T, Initial residual = 9.0720226e-07, Final residual = 9.0720226e-07, No Iterations 0
ExecutionTime = 23.57 s  ClockTime = 24 s

Time = 98.15

DICPCG:  Solving for T, Initial residual = 9.0720226e-07, Final residual = 9.0720226e-07, No Iterations 0
DICPCG:  Solving for T, Initial residual = 9.0720226e-07, Final residual = 9.0720226e-07, No Iterations 0
DICPCG:  Solving for T, Initial residual = 9.0720226e-07, Final residual = 9.0720226e-07, No Iterations 0
ExecutionTime = 23.58 s  ClockTime = 24 s

Time = 98.2

DICPCG:  Solving for T, Initial residual = 9.0720226e-07, Final residual = 9.0720226e-07, No Iterations 0
DICPCG:  Solving for T, Initial residual = 9.0720226e-07, Final residual = 9.0720226e-07, No Iterations 0
DICPCG:  Solving for T, Initial residual = 9.0720226e-07, Final residual = 9.0720226e-07, No Iterations 0
ExecutionTime = 23.59 s  ClockTime = 24 s

Time = 98.25

DICPCG:  Solving for T, Initial residual = 9.0720226e-07, Final residual = 9.0720226e-07, No Iterations 0
DICPCG:  Solving for T, Initial residual = 9.0720226e-07, Final residual = 9.0720226e-07, No Iterations 0
DICPCG:  Solving for T, Initial residual = 9.0720226e-07, Final residual = 9.0720226e-07, No Iterations 0
ExecutionTime = 23.6 s  ClockTime = 24 s

Time = 98.3

DICPCG:  Solving for T, Initial residual = 9.0720226e-07, Final residual = 9.0720226e-07, No Iterations 0
DICPCG:  Solving for T, Initial residual = 9.0720226e-07, Final residual = 9.0720226e-07, No Iterations 0
DICPCG:  Solving for T, Initial residual = 9.0720226e-07, Final residual = 9.0720226e-07, No Iterations 0
ExecutionTime = 23.61 s  ClockTime = 24 s

Time = 98.35

DICPCG:  Solving for T, Initial residual = 9.0720226e-07, Final residual = 9.0720226e-07, No Iterations 0
DICPCG:  Solving for T, Initial residual = 9.0720226e-07, Final residual = 9.0720226e-07, No Iterations 0
DICPCG:  Solving for T, Initial residual = 9.0720226e-07, Final residual = 9.0720226e-07, No Iterations 0
ExecutionTime = 23.62 s  ClockTime = 24 s

Time = 98.4

DICPCG:  Solving for T, Initial residual = 9.0720226e-07, Final residual = 9.0720226e-07, No Iterations 0
DICPCG:  Solving for T, Initial residual = 9.0720226e-07, Final residual = 9.0720226e-07, No Iterations 0
DICPCG:  Solving for T, Initial residual = 9.0720226e-07, Final residual = 9.0720226e-07, No Iterations 0
ExecutionTime = 23.63 s  ClockTime = 24 s

Time = 98.45

DICPCG:  Solving for T, Initial residual = 9.0720226e-07, Final residual = 9.0720226e-07, No Iterations 0
DICPCG:  Solving for T, Initial residual = 9.0720226e-07, Final residual = 9.0720226e-07, No Iterations 0
DICPCG:  Solving for T, Initial residual = 9.0720226e-07, Final residual = 9.0720226e-07, No Iterations 0
ExecutionTime = 23.65 s  ClockTime = 24 s

Time = 98.5

DICPCG:  Solving for T, Initial residual = 9.0720226e-07, Final residual = 9.0720226e-07, No Iterations 0
DICPCG:  Solving for T, Initial residual = 9.0720226e-07, Final residual = 9.0720226e-07, No Iterations 0
DICPCG:  Solving for T, Initial residual = 9.0720226e-07, Final residual = 9.0720226e-07, No Iterations 0
ExecutionTime = 23.66 s  ClockTime = 24 s

Time = 98.55

DICPCG:  Solving for T, Initial residual = 9.0720226e-07, Final residual = 9.0720226e-07, No Iterations 0
DICPCG:  Solving for T, Initial residual = 9.0720226e-07, Final residual = 9.0720226e-07, No Iterations 0
DICPCG:  Solving for T, Initial residual = 9.0720226e-07, Final residual = 9.0720226e-07, No Iterations 0
ExecutionTime = 23.67 s  ClockTime = 24 s

Time = 98.6

DICPCG:  Solving for T, Initial residual = 9.0720226e-07, Final residual = 9.0720226e-07, No Iterations 0
DICPCG:  Solving for T, Initial residual = 9.0720226e-07, Final residual = 9.0720226e-07, No Iterations 0
DICPCG:  Solving for T, Initial residual = 9.0720226e-07, Final residual = 9.0720226e-07, No Iterations 0
ExecutionTime = 23.68 s  ClockTime = 24 s

Time = 98.65

DICPCG:  Solving for T, Initial residual = 9.0720226e-07, Final residual = 9.0720226e-07, No Iterations 0
DICPCG:  Solving for T, Initial residual = 9.0720226e-07, Final residual = 9.0720226e-07, No Iterations 0
DICPCG:  Solving for T, Initial residual = 9.0720226e-07, Final residual = 9.0720226e-07, No Iterations 0
ExecutionTime = 23.69 s  ClockTime = 24 s

Time = 98.7

DICPCG:  Solving for T, Initial residual = 9.0720226e-07, Final residual = 9.0720226e-07, No Iterations 0
DICPCG:  Solving for T, Initial residual = 9.0720226e-07, Final residual = 9.0720226e-07, No Iterations 0
DICPCG:  Solving for T, Initial residual = 9.0720226e-07, Final residual = 9.0720226e-07, No Iterations 0
ExecutionTime = 23.7 s  ClockTime = 24 s

Time = 98.75

DICPCG:  Solving for T, Initial residual = 9.0720226e-07, Final residual = 9.0720226e-07, No Iterations 0
DICPCG:  Solving for T, Initial residual = 9.0720226e-07, Final residual = 9.0720226e-07, No Iterations 0
DICPCG:  Solving for T, Initial residual = 9.0720226e-07, Final residual = 9.0720226e-07, No Iterations 0
ExecutionTime = 23.71 s  ClockTime = 24 s

Time = 98.8

DICPCG:  Solving for T, Initial residual = 9.0720226e-07, Final residual = 9.0720226e-07, No Iterations 0
DICPCG:  Solving for T, Initial residual = 9.0720226e-07, Final residual = 9.0720226e-07, No Iterations 0
DICPCG:  Solving for T, Initial residual = 9.0720226e-07, Final residual = 9.0720226e-07, No Iterations 0
ExecutionTime = 23.72 s  ClockTime = 24 s

Time = 98.85

DICPCG:  Solving for T, Initial residual = 9.0720226e-07, Final residual = 9.0720226e-07, No Iterations 0
DICPCG:  Solving for T, Initial residual = 9.0720226e-07, Final residual = 9.0720226e-07, No Iterations 0
DICPCG:  Solving for T, Initial residual = 9.0720226e-07, Final residual = 9.0720226e-07, No Iterations 0
ExecutionTime = 23.72 s  ClockTime = 24 s

Time = 98.9

DICPCG:  Solving for T, Initial residual = 9.0720226e-07, Final residual = 9.0720226e-07, No Iterations 0
DICPCG:  Solving for T, Initial residual = 9.0720226e-07, Final residual = 9.0720226e-07, No Iterations 0
DICPCG:  Solving for T, Initial residual = 9.0720226e-07, Final residual = 9.0720226e-07, No Iterations 0
ExecutionTime = 23.73 s  ClockTime = 24 s

Time = 98.95

DICPCG:  Solving for T, Initial residual = 9.0720226e-07, Final residual = 9.0720226e-07, No Iterations 0
DICPCG:  Solving for T, Initial residual = 9.0720226e-07, Final residual = 9.0720226e-07, No Iterations 0
DICPCG:  Solving for T, Initial residual = 9.0720226e-07, Final residual = 9.0720226e-07, No Iterations 0
ExecutionTime = 23.74 s  ClockTime = 24 s

Time = 99

DICPCG:  Solving for T, Initial residual = 9.0720226e-07, Final residual = 9.0720226e-07, No Iterations 0
DICPCG:  Solving for T, Initial residual = 9.0720226e-07, Final residual = 9.0720226e-07, No Iterations 0
DICPCG:  Solving for T, Initial residual = 9.0720226e-07, Final residual = 9.0720226e-07, No Iterations 0
ExecutionTime = 23.75 s  ClockTime = 24 s

Time = 99.05

DICPCG:  Solving for T, Initial residual = 9.0720226e-07, Final residual = 9.0720226e-07, No Iterations 0
DICPCG:  Solving for T, Initial residual = 9.0720226e-07, Final residual = 9.0720226e-07, No Iterations 0
DICPCG:  Solving for T, Initial residual = 9.0720226e-07, Final residual = 9.0720226e-07, No Iterations 0
ExecutionTime = 23.76 s  ClockTime = 24 s

Time = 99.1

DICPCG:  Solving for T, Initial residual = 9.0720226e-07, Final residual = 9.0720226e-07, No Iterations 0
DICPCG:  Solving for T, Initial residual = 9.0720226e-07, Final residual = 9.0720226e-07, No Iterations 0
DICPCG:  Solving for T, Initial residual = 9.0720226e-07, Final residual = 9.0720226e-07, No Iterations 0
ExecutionTime = 23.79 s  ClockTime = 24 s

Time = 99.15

DICPCG:  Solving for T, Initial residual = 9.0720226e-07, Final residual = 9.0720226e-07, No Iterations 0
DICPCG:  Solving for T, Initial residual = 9.0720226e-07, Final residual = 9.0720226e-07, No Iterations 0
DICPCG:  Solving for T, Initial residual = 9.0720226e-07, Final residual = 9.0720226e-07, No Iterations 0
ExecutionTime = 23.8 s  ClockTime = 24 s

Time = 99.2

DICPCG:  Solving for T, Initial residual = 9.0720226e-07, Final residual = 9.0720226e-07, No Iterations 0
DICPCG:  Solving for T, Initial residual = 9.0720226e-07, Final residual = 9.0720226e-07, No Iterations 0
DICPCG:  Solving for T, Initial residual = 9.0720226e-07, Final residual = 9.0720226e-07, No Iterations 0
ExecutionTime = 23.81 s  ClockTime = 24 s

Time = 99.25

DICPCG:  Solving for T, Initial residual = 9.0720226e-07, Final residual = 9.0720226e-07, No Iterations 0
DICPCG:  Solving for T, Initial residual = 9.0720226e-07, Final residual = 9.0720226e-07, No Iterations 0
DICPCG:  Solving for T, Initial residual = 9.0720226e-07, Final residual = 9.0720226e-07, No Iterations 0
ExecutionTime = 23.82 s  ClockTime = 24 s

Time = 99.3

DICPCG:  Solving for T, Initial residual = 9.0720226e-07, Final residual = 9.0720226e-07, No Iterations 0
DICPCG:  Solving for T, Initial residual = 9.0720226e-07, Final residual = 9.0720226e-07, No Iterations 0
DICPCG:  Solving for T, Initial residual = 9.0720226e-07, Final residual = 9.0720226e-07, No Iterations 0
ExecutionTime = 23.83 s  ClockTime = 24 s

Time = 99.35

DICPCG:  Solving for T, Initial residual = 9.0720226e-07, Final residual = 9.0720226e-07, No Iterations 0
DICPCG:  Solving for T, Initial residual = 9.0720226e-07, Final residual = 9.0720226e-07, No Iterations 0
DICPCG:  Solving for T, Initial residual = 9.0720226e-07, Final residual = 9.0720226e-07, No Iterations 0
ExecutionTime = 23.84 s  ClockTime = 24 s

Time = 99.4

DICPCG:  Solving for T, Initial residual = 9.0720226e-07, Final residual = 9.0720226e-07, No Iterations 0
DICPCG:  Solving for T, Initial residual = 9.0720226e-07, Final residual = 9.0720226e-07, No Iterations 0
DICPCG:  Solving for T, Initial residual = 9.0720226e-07, Final residual = 9.0720226e-07, No Iterations 0
ExecutionTime = 23.85 s  ClockTime = 24 s

Time = 99.45

DICPCG:  Solving for T, Initial residual = 9.0720226e-07, Final residual = 9.0720226e-07, No Iterations 0
DICPCG:  Solving for T, Initial residual = 9.0720226e-07, Final residual = 9.0720226e-07, No Iterations 0
DICPCG:  Solving for T, Initial residual = 9.0720226e-07, Final residual = 9.0720226e-07, No Iterations 0
ExecutionTime = 23.86 s  ClockTime = 24 s

Time = 99.5

DICPCG:  Solving for T, Initial residual = 9.0720226e-07, Final residual = 9.0720226e-07, No Iterations 0
DICPCG:  Solving for T, Initial residual = 9.0720226e-07, Final residual = 9.0720226e-07, No Iterations 0
DICPCG:  Solving for T, Initial residual = 9.0720226e-07, Final residual = 9.0720226e-07, No Iterations 0
ExecutionTime = 23.88 s  ClockTime = 24 s

Time = 99.55

DICPCG:  Solving for T, Initial residual = 9.0720226e-07, Final residual = 9.0720226e-07, No Iterations 0
DICPCG:  Solving for T, Initial residual = 9.0720226e-07, Final residual = 9.0720226e-07, No Iterations 0
DICPCG:  Solving for T, Initial residual = 9.0720226e-07, Final residual = 9.0720226e-07, No Iterations 0
ExecutionTime = 23.89 s  ClockTime = 24 s

Time = 99.6

DICPCG:  Solving for T, Initial residual = 9.0720226e-07, Final residual = 9.0720226e-07, No Iterations 0
DICPCG:  Solving for T, Initial residual = 9.0720226e-07, Final residual = 9.0720226e-07, No Iterations 0
DICPCG:  Solving for T, Initial residual = 9.0720226e-07, Final residual = 9.0720226e-07, No Iterations 0
ExecutionTime = 23.9 s  ClockTime = 24 s

Time = 99.65

DICPCG:  Solving for T, Initial residual = 9.0720226e-07, Final residual = 9.0720226e-07, No Iterations 0
DICPCG:  Solving for T, Initial residual = 9.0720226e-07, Final residual = 9.0720226e-07, No Iterations 0
DICPCG:  Solving for T, Initial residual = 9.0720226e-07, Final residual = 9.0720226e-07, No Iterations 0
ExecutionTime = 23.91 s  ClockTime = 24 s

Time = 99.7

DICPCG:  Solving for T, Initial residual = 9.0720226e-07, Final residual = 9.0720226e-07, No Iterations 0
DICPCG:  Solving for T, Initial residual = 9.0720226e-07, Final residual = 9.0720226e-07, No Iterations 0
DICPCG:  Solving for T, Initial residual = 9.0720226e-07, Final residual = 9.0720226e-07, No Iterations 0
ExecutionTime = 23.92 s  ClockTime = 24 s

Time = 99.75

DICPCG:  Solving for T, Initial residual = 9.0720226e-07, Final residual = 9.0720226e-07, No Iterations 0
DICPCG:  Solving for T, Initial residual = 9.0720226e-07, Final residual = 9.0720226e-07, No Iterations 0
DICPCG:  Solving for T, Initial residual = 9.0720226e-07, Final residual = 9.0720226e-07, No Iterations 0
ExecutionTime = 23.93 s  ClockTime = 24 s

Time = 99.8

DICPCG:  Solving for T, Initial residual = 9.0720226e-07, Final residual = 9.0720226e-07, No Iterations 0
DICPCG:  Solving for T, Initial residual = 9.0720226e-07, Final residual = 9.0720226e-07, No Iterations 0
DICPCG:  Solving for T, Initial residual = 9.0720226e-07, Final residual = 9.0720226e-07, No Iterations 0
ExecutionTime = 23.94 s  ClockTime = 24 s

Time = 99.85

DICPCG:  Solving for T, Initial residual = 9.0720226e-07, Final residual = 9.0720226e-07, No Iterations 0
DICPCG:  Solving for T, Initial residual = 9.0720226e-07, Final residual = 9.0720226e-07, No Iterations 0
DICPCG:  Solving for T, Initial residual = 9.0720226e-07, Final residual = 9.0720226e-07, No Iterations 0
ExecutionTime = 23.95 s  ClockTime = 24 s

Time = 99.9

DICPCG:  Solving for T, Initial residual = 9.0720226e-07, Final residual = 9.0720226e-07, No Iterations 0
DICPCG:  Solving for T, Initial residual = 9.0720226e-07, Final residual = 9.0720226e-07, No Iterations 0
DICPCG:  Solving for T, Initial residual = 9.0720226e-07, Final residual = 9.0720226e-07, No Iterations 0
ExecutionTime = 23.96 s  ClockTime = 24 s

Time = 99.95

DICPCG:  Solving for T, Initial residual = 9.0720226e-07, Final residual = 9.0720226e-07, No Iterations 0
DICPCG:  Solving for T, Initial residual = 9.0720226e-07, Final residual = 9.0720226e-07, No Iterations 0
DICPCG:  Solving for T, Initial residual = 9.0720226e-07, Final residual = 9.0720226e-07, No Iterations 0
ExecutionTime = 23.97 s  ClockTime = 24 s

Time = 100

DICPCG:  Solving for T, Initial residual = 9.0720226e-07, Final residual = 9.0720226e-07, No Iterations 0
DICPCG:  Solving for T, Initial residual = 9.0720226e-07, Final residual = 9.0720226e-07, No Iterations 0
DICPCG:  Solving for T, Initial residual = 9.0720226e-07, Final residual = 9.0720226e-07, No Iterations 0
ExecutionTime = 24.1 s  ClockTime = 24 s


The simulation of FOM is finishing at 24.1 s.


The solver is finishing at 24.22 s.

