/*---------------------------------------------------------------------------*\
| =========                 |                                                 |
| \\      /  F ield         | OpenFOAM: The Open Source CFD Toolbox           |
|  \\    /   O peration     | Version:  v2106                                 |
|   \\  /    A nd           | Website:  www.openfoam.com                      |
|    \\/     M anipulation  |                                                 |
\*---------------------------------------------------------------------------*/
Build  : _c15bfde3cb-20210624 OPENFOAM=2106
Arch   : "LSB;label=32;scalar=64"
Exec   : laplacianFoamDiscGalk
Date   : Nov 06 2022
Time   : 18:55:03
Host   : Sh-Ruan-matebook
PID    : 13929
I/O    : uncollated
Case   : /home/shenhui_ruan/gitFolder/RshOpenFOAMSourceCode/ROM_Discontinuity_Galerkin/Blocks_gradBCs
nProcs : 1
trapFpe: Floating point exception trapping enabled (FOAM_SIGFPE).
fileModificationChecking : Monitoring run-time modified files using timeStampMaster (fileModificationSkew 5, maxFileModificationPolls 20)
allowSystemOperations : Allowing user-supplied system call operations

// * * * * * * * * * * * * * * * * * * * * * * * * * * * * * * * * * * * * * //
Create time

Create mesh for time = 0


SIMPLE: no convergence criteria found. Calculations will run for 50 steps.

Reading field T

Reading diffusivity DT

No finite volume options present

Calculating temperature distribution

Time = 1

DICPCG:  Solving for T, Initial residual = 1, Final residual = 9.2193261e-07, No Iterations 98
DICPCG:  Solving for T, Initial residual = 4.5682932e-07, Final residual = 4.5682932e-07, No Iterations 0
DICPCG:  Solving for T, Initial residual = 4.5682932e-07, Final residual = 4.5682932e-07, No Iterations 0
ExecutionTime = 0.2 s  ClockTime = 0 s

Time = 2

DICPCG:  Solving for T, Initial residual = 0.0047843396, Final residual = 8.3644941e-07, No Iterations 76
DICPCG:  Solving for T, Initial residual = 8.3811504e-07, Final residual = 8.3811504e-07, No Iterations 0
DICPCG:  Solving for T, Initial residual = 8.3811504e-07, Final residual = 8.3811504e-07, No Iterations 0
ExecutionTime = 0.24 s  ClockTime = 1 s

Time = 3

DICPCG:  Solving for T, Initial residual = 0.0011436813, Final residual = 8.2809865e-07, No Iterations 67
DICPCG:  Solving for T, Initial residual = 8.2808042e-07, Final residual = 8.2808042e-07, No Iterations 0
DICPCG:  Solving for T, Initial residual = 8.2808042e-07, Final residual = 8.2808042e-07, No Iterations 0
ExecutionTime = 0.29 s  ClockTime = 1 s

Time = 4

DICPCG:  Solving for T, Initial residual = 0.00032438584, Final residual = 8.8108426e-07, No Iterations 51
DICPCG:  Solving for T, Initial residual = 8.8104663e-07, Final residual = 8.8104663e-07, No Iterations 0
DICPCG:  Solving for T, Initial residual = 8.8104663e-07, Final residual = 8.8104663e-07, No Iterations 0
ExecutionTime = 0.33 s  ClockTime = 1 s

Time = 5

DICPCG:  Solving for T, Initial residual = 9.3398599e-05, Final residual = 9.399491e-07, No Iterations 42
DICPCG:  Solving for T, Initial residual = 9.3993544e-07, Final residual = 9.3993544e-07, No Iterations 0
DICPCG:  Solving for T, Initial residual = 9.3993544e-07, Final residual = 9.3993544e-07, No Iterations 0
ExecutionTime = 0.36 s  ClockTime = 1 s

Time = 6

DICPCG:  Solving for T, Initial residual = 2.6933343e-05, Final residual = 9.9238366e-07, No Iterations 26
DICPCG:  Solving for T, Initial residual = 9.923794e-07, Final residual = 9.923794e-07, No Iterations 0
DICPCG:  Solving for T, Initial residual = 9.923794e-07, Final residual = 9.923794e-07, No Iterations 0
ExecutionTime = 0.38 s  ClockTime = 1 s

Time = 7

DICPCG:  Solving for T, Initial residual = 7.7156932e-06, Final residual = 9.5834816e-07, No Iterations 19
DICPCG:  Solving for T, Initial residual = 9.5834717e-07, Final residual = 9.5834717e-07, No Iterations 0
DICPCG:  Solving for T, Initial residual = 9.5834717e-07, Final residual = 9.5834717e-07, No Iterations 0
ExecutionTime = 0.41 s  ClockTime = 1 s

Time = 8

DICPCG:  Solving for T, Initial residual = 2.4057502e-06, Final residual = 7.6078816e-07, No Iterations 24
DICPCG:  Solving for T, Initial residual = 7.6078775e-07, Final residual = 7.6078775e-07, No Iterations 0
DICPCG:  Solving for T, Initial residual = 7.6078775e-07, Final residual = 7.6078775e-07, No Iterations 0
ExecutionTime = 0.43 s  ClockTime = 1 s

Time = 9

DICPCG:  Solving for T, Initial residual = 9.6615272e-07, Final residual = 9.6615272e-07, No Iterations 0
DICPCG:  Solving for T, Initial residual = 9.6615272e-07, Final residual = 9.6615272e-07, No Iterations 0
DICPCG:  Solving for T, Initial residual = 9.6615272e-07, Final residual = 9.6615272e-07, No Iterations 0
ExecutionTime = 0.45 s  ClockTime = 1 s

Time = 10

DICPCG:  Solving for T, Initial residual = 9.6615272e-07, Final residual = 9.6615272e-07, No Iterations 0
DICPCG:  Solving for T, Initial residual = 9.6615272e-07, Final residual = 9.6615272e-07, No Iterations 0
DICPCG:  Solving for T, Initial residual = 9.6615272e-07, Final residual = 9.6615272e-07, No Iterations 0
ExecutionTime = 0.64 s  ClockTime = 1 s

Time = 11

DICPCG:  Solving for T, Initial residual = 9.6615272e-07, Final residual = 9.6615272e-07, No Iterations 0
DICPCG:  Solving for T, Initial residual = 9.6615272e-07, Final residual = 9.6615272e-07, No Iterations 0
DICPCG:  Solving for T, Initial residual = 9.6615272e-07, Final residual = 9.6615272e-07, No Iterations 0
ExecutionTime = 0.64 s  ClockTime = 1 s

Time = 12

DICPCG:  Solving for T, Initial residual = 9.6615272e-07, Final residual = 9.6615272e-07, No Iterations 0
DICPCG:  Solving for T, Initial residual = 9.6615272e-07, Final residual = 9.6615272e-07, No Iterations 0
DICPCG:  Solving for T, Initial residual = 9.6615272e-07, Final residual = 9.6615272e-07, No Iterations 0
ExecutionTime = 0.67 s  ClockTime = 1 s

Time = 13

DICPCG:  Solving for T, Initial residual = 9.6615272e-07, Final residual = 9.6615272e-07, No Iterations 0
DICPCG:  Solving for T, Initial residual = 9.6615272e-07, Final residual = 9.6615272e-07, No Iterations 0
DICPCG:  Solving for T, Initial residual = 9.6615272e-07, Final residual = 9.6615272e-07, No Iterations 0
ExecutionTime = 0.68 s  ClockTime = 1 s

Time = 14

DICPCG:  Solving for T, Initial residual = 9.6615272e-07, Final residual = 9.6615272e-07, No Iterations 0
DICPCG:  Solving for T, Initial residual = 9.6615272e-07, Final residual = 9.6615272e-07, No Iterations 0
DICPCG:  Solving for T, Initial residual = 9.6615272e-07, Final residual = 9.6615272e-07, No Iterations 0
ExecutionTime = 0.7 s  ClockTime = 1 s

Time = 15

DICPCG:  Solving for T, Initial residual = 9.6615272e-07, Final residual = 9.6615272e-07, No Iterations 0
DICPCG:  Solving for T, Initial residual = 9.6615272e-07, Final residual = 9.6615272e-07, No Iterations 0
DICPCG:  Solving for T, Initial residual = 9.6615272e-07, Final residual = 9.6615272e-07, No Iterations 0
ExecutionTime = 0.71 s  ClockTime = 1 s

Time = 16

DICPCG:  Solving for T, Initial residual = 9.6615272e-07, Final residual = 9.6615272e-07, No Iterations 0
DICPCG:  Solving for T, Initial residual = 9.6615272e-07, Final residual = 9.6615272e-07, No Iterations 0
DICPCG:  Solving for T, Initial residual = 9.6615272e-07, Final residual = 9.6615272e-07, No Iterations 0
ExecutionTime = 0.72 s  ClockTime = 1 s

Time = 17

DICPCG:  Solving for T, Initial residual = 9.6615272e-07, Final residual = 9.6615272e-07, No Iterations 0
DICPCG:  Solving for T, Initial residual = 9.6615272e-07, Final residual = 9.6615272e-07, No Iterations 0
DICPCG:  Solving for T, Initial residual = 9.6615272e-07, Final residual = 9.6615272e-07, No Iterations 0
ExecutionTime = 0.74 s  ClockTime = 1 s

Time = 18

DICPCG:  Solving for T, Initial residual = 9.6615272e-07, Final residual = 9.6615272e-07, No Iterations 0
DICPCG:  Solving for T, Initial residual = 9.6615272e-07, Final residual = 9.6615272e-07, No Iterations 0
DICPCG:  Solving for T, Initial residual = 9.6615272e-07, Final residual = 9.6615272e-07, No Iterations 0
ExecutionTime = 0.75 s  ClockTime = 1 s

Time = 19

DICPCG:  Solving for T, Initial residual = 9.6615272e-07, Final residual = 9.6615272e-07, No Iterations 0
DICPCG:  Solving for T, Initial residual = 9.6615272e-07, Final residual = 9.6615272e-07, No Iterations 0
DICPCG:  Solving for T, Initial residual = 9.6615272e-07, Final residual = 9.6615272e-07, No Iterations 0
ExecutionTime = 0.77 s  ClockTime = 1 s

Time = 20

DICPCG:  Solving for T, Initial residual = 9.6615272e-07, Final residual = 9.6615272e-07, No Iterations 0
DICPCG:  Solving for T, Initial residual = 9.6615272e-07, Final residual = 9.6615272e-07, No Iterations 0
DICPCG:  Solving for T, Initial residual = 9.6615272e-07, Final residual = 9.6615272e-07, No Iterations 0
ExecutionTime = 0.96 s  ClockTime = 1 s

Time = 21

DICPCG:  Solving for T, Initial residual = 9.6615272e-07, Final residual = 9.6615272e-07, No Iterations 0
DICPCG:  Solving for T, Initial residual = 9.6615272e-07, Final residual = 9.6615272e-07, No Iterations 0
DICPCG:  Solving for T, Initial residual = 9.6615272e-07, Final residual = 9.6615272e-07, No Iterations 0
ExecutionTime = 0.97 s  ClockTime = 1 s

Time = 22

DICPCG:  Solving for T, Initial residual = 9.6615272e-07, Final residual = 9.6615272e-07, No Iterations 0
DICPCG:  Solving for T, Initial residual = 9.6615272e-07, Final residual = 9.6615272e-07, No Iterations 0
DICPCG:  Solving for T, Initial residual = 9.6615272e-07, Final residual = 9.6615272e-07, No Iterations 0
ExecutionTime = 0.99 s  ClockTime = 1 s

Time = 23

DICPCG:  Solving for T, Initial residual = 9.6615272e-07, Final residual = 9.6615272e-07, No Iterations 0
DICPCG:  Solving for T, Initial residual = 9.6615272e-07, Final residual = 9.6615272e-07, No Iterations 0
DICPCG:  Solving for T, Initial residual = 9.6615272e-07, Final residual = 9.6615272e-07, No Iterations 0
ExecutionTime = 1 s  ClockTime = 1 s

Time = 24

DICPCG:  Solving for T, Initial residual = 9.6615272e-07, Final residual = 9.6615272e-07, No Iterations 0
DICPCG:  Solving for T, Initial residual = 9.6615272e-07, Final residual = 9.6615272e-07, No Iterations 0
DICPCG:  Solving for T, Initial residual = 9.6615272e-07, Final residual = 9.6615272e-07, No Iterations 0
ExecutionTime = 1.01 s  ClockTime = 1 s

Time = 25

DICPCG:  Solving for T, Initial residual = 9.6615272e-07, Final residual = 9.6615272e-07, No Iterations 0
DICPCG:  Solving for T, Initial residual = 9.6615272e-07, Final residual = 9.6615272e-07, No Iterations 0
DICPCG:  Solving for T, Initial residual = 9.6615272e-07, Final residual = 9.6615272e-07, No Iterations 0
ExecutionTime = 1.03 s  ClockTime = 1 s

Time = 26

DICPCG:  Solving for T, Initial residual = 9.6615272e-07, Final residual = 9.6615272e-07, No Iterations 0
DICPCG:  Solving for T, Initial residual = 9.6615272e-07, Final residual = 9.6615272e-07, No Iterations 0
DICPCG:  Solving for T, Initial residual = 9.6615272e-07, Final residual = 9.6615272e-07, No Iterations 0
ExecutionTime = 1.04 s  ClockTime = 1 s

Time = 27

DICPCG:  Solving for T, Initial residual = 9.6615272e-07, Final residual = 9.6615272e-07, No Iterations 0
DICPCG:  Solving for T, Initial residual = 9.6615272e-07, Final residual = 9.6615272e-07, No Iterations 0
DICPCG:  Solving for T, Initial residual = 9.6615272e-07, Final residual = 9.6615272e-07, No Iterations 0
ExecutionTime = 1.06 s  ClockTime = 1 s

Time = 28

DICPCG:  Solving for T, Initial residual = 9.6615272e-07, Final residual = 9.6615272e-07, No Iterations 0
DICPCG:  Solving for T, Initial residual = 9.6615272e-07, Final residual = 9.6615272e-07, No Iterations 0
DICPCG:  Solving for T, Initial residual = 9.6615272e-07, Final residual = 9.6615272e-07, No Iterations 0
ExecutionTime = 1.07 s  ClockTime = 1 s

Time = 29

DICPCG:  Solving for T, Initial residual = 9.6615272e-07, Final residual = 9.6615272e-07, No Iterations 0
DICPCG:  Solving for T, Initial residual = 9.6615272e-07, Final residual = 9.6615272e-07, No Iterations 0
DICPCG:  Solving for T, Initial residual = 9.6615272e-07, Final residual = 9.6615272e-07, No Iterations 0
ExecutionTime = 1.09 s  ClockTime = 1 s

Time = 30

DICPCG:  Solving for T, Initial residual = 9.6615272e-07, Final residual = 9.6615272e-07, No Iterations 0
DICPCG:  Solving for T, Initial residual = 9.6615272e-07, Final residual = 9.6615272e-07, No Iterations 0
DICPCG:  Solving for T, Initial residual = 9.6615272e-07, Final residual = 9.6615272e-07, No Iterations 0
ExecutionTime = 1.27 s  ClockTime = 2 s

Time = 31

DICPCG:  Solving for T, Initial residual = 9.6615272e-07, Final residual = 9.6615272e-07, No Iterations 0
DICPCG:  Solving for T, Initial residual = 9.6615272e-07, Final residual = 9.6615272e-07, No Iterations 0
DICPCG:  Solving for T, Initial residual = 9.6615272e-07, Final residual = 9.6615272e-07, No Iterations 0
ExecutionTime = 1.3 s  ClockTime = 2 s

Time = 32

DICPCG:  Solving for T, Initial residual = 9.6615272e-07, Final residual = 9.6615272e-07, No Iterations 0
DICPCG:  Solving for T, Initial residual = 9.6615272e-07, Final residual = 9.6615272e-07, No Iterations 0
DICPCG:  Solving for T, Initial residual = 9.6615272e-07, Final residual = 9.6615272e-07, No Iterations 0
ExecutionTime = 1.31 s  ClockTime = 2 s

Time = 33

DICPCG:  Solving for T, Initial residual = 9.6615272e-07, Final residual = 9.6615272e-07, No Iterations 0
DICPCG:  Solving for T, Initial residual = 9.6615272e-07, Final residual = 9.6615272e-07, No Iterations 0
DICPCG:  Solving for T, Initial residual = 9.6615272e-07, Final residual = 9.6615272e-07, No Iterations 0
ExecutionTime = 1.33 s  ClockTime = 2 s

Time = 34

DICPCG:  Solving for T, Initial residual = 9.6615272e-07, Final residual = 9.6615272e-07, No Iterations 0
DICPCG:  Solving for T, Initial residual = 9.6615272e-07, Final residual = 9.6615272e-07, No Iterations 0
DICPCG:  Solving for T, Initial residual = 9.6615272e-07, Final residual = 9.6615272e-07, No Iterations 0
ExecutionTime = 1.34 s  ClockTime = 2 s

Time = 35

DICPCG:  Solving for T, Initial residual = 9.6615272e-07, Final residual = 9.6615272e-07, No Iterations 0
DICPCG:  Solving for T, Initial residual = 9.6615272e-07, Final residual = 9.6615272e-07, No Iterations 0
DICPCG:  Solving for T, Initial residual = 9.6615272e-07, Final residual = 9.6615272e-07, No Iterations 0
ExecutionTime = 1.36 s  ClockTime = 2 s

Time = 36

DICPCG:  Solving for T, Initial residual = 9.6615272e-07, Final residual = 9.6615272e-07, No Iterations 0
DICPCG:  Solving for T, Initial residual = 9.6615272e-07, Final residual = 9.6615272e-07, No Iterations 0
DICPCG:  Solving for T, Initial residual = 9.6615272e-07, Final residual = 9.6615272e-07, No Iterations 0
ExecutionTime = 1.38 s  ClockTime = 2 s

Time = 37

DICPCG:  Solving for T, Initial residual = 9.6615272e-07, Final residual = 9.6615272e-07, No Iterations 0
DICPCG:  Solving for T, Initial residual = 9.6615272e-07, Final residual = 9.6615272e-07, No Iterations 0
DICPCG:  Solving for T, Initial residual = 9.6615272e-07, Final residual = 9.6615272e-07, No Iterations 0
ExecutionTime = 1.4 s  ClockTime = 2 s

Time = 38

DICPCG:  Solving for T, Initial residual = 9.6615272e-07, Final residual = 9.6615272e-07, No Iterations 0
DICPCG:  Solving for T, Initial residual = 9.6615272e-07, Final residual = 9.6615272e-07, No Iterations 0
DICPCG:  Solving for T, Initial residual = 9.6615272e-07, Final residual = 9.6615272e-07, No Iterations 0
ExecutionTime = 1.41 s  ClockTime = 2 s

Time = 39

DICPCG:  Solving for T, Initial residual = 9.6615272e-07, Final residual = 9.6615272e-07, No Iterations 0
DICPCG:  Solving for T, Initial residual = 9.6615272e-07, Final residual = 9.6615272e-07, No Iterations 0
DICPCG:  Solving for T, Initial residual = 9.6615272e-07, Final residual = 9.6615272e-07, No Iterations 0
ExecutionTime = 1.43 s  ClockTime = 2 s

Time = 40

DICPCG:  Solving for T, Initial residual = 9.6615272e-07, Final residual = 9.6615272e-07, No Iterations 0
DICPCG:  Solving for T, Initial residual = 9.6615272e-07, Final residual = 9.6615272e-07, No Iterations 0
DICPCG:  Solving for T, Initial residual = 9.6615272e-07, Final residual = 9.6615272e-07, No Iterations 0
ExecutionTime = 1.61 s  ClockTime = 2 s

Time = 41

DICPCG:  Solving for T, Initial residual = 9.6615272e-07, Final residual = 9.6615272e-07, No Iterations 0
DICPCG:  Solving for T, Initial residual = 9.6615272e-07, Final residual = 9.6615272e-07, No Iterations 0
DICPCG:  Solving for T, Initial residual = 9.6615272e-07, Final residual = 9.6615272e-07, No Iterations 0
ExecutionTime = 1.63 s  ClockTime = 2 s

Time = 42

DICPCG:  Solving for T, Initial residual = 9.6615272e-07, Final residual = 9.6615272e-07, No Iterations 0
DICPCG:  Solving for T, Initial residual = 9.6615272e-07, Final residual = 9.6615272e-07, No Iterations 0
DICPCG:  Solving for T, Initial residual = 9.6615272e-07, Final residual = 9.6615272e-07, No Iterations 0
ExecutionTime = 1.65 s  ClockTime = 2 s

Time = 43

DICPCG:  Solving for T, Initial residual = 9.6615272e-07, Final residual = 9.6615272e-07, No Iterations 0
DICPCG:  Solving for T, Initial residual = 9.6615272e-07, Final residual = 9.6615272e-07, No Iterations 0
DICPCG:  Solving for T, Initial residual = 9.6615272e-07, Final residual = 9.6615272e-07, No Iterations 0
ExecutionTime = 1.67 s  ClockTime = 2 s

Time = 44

DICPCG:  Solving for T, Initial residual = 9.6615272e-07, Final residual = 9.6615272e-07, No Iterations 0
DICPCG:  Solving for T, Initial residual = 9.6615272e-07, Final residual = 9.6615272e-07, No Iterations 0
DICPCG:  Solving for T, Initial residual = 9.6615272e-07, Final residual = 9.6615272e-07, No Iterations 0
ExecutionTime = 1.69 s  ClockTime = 2 s

Time = 45

DICPCG:  Solving for T, Initial residual = 9.6615272e-07, Final residual = 9.6615272e-07, No Iterations 0
DICPCG:  Solving for T, Initial residual = 9.6615272e-07, Final residual = 9.6615272e-07, No Iterations 0
DICPCG:  Solving for T, Initial residual = 9.6615272e-07, Final residual = 9.6615272e-07, No Iterations 0
ExecutionTime = 1.7 s  ClockTime = 2 s

Time = 46

DICPCG:  Solving for T, Initial residual = 9.6615272e-07, Final residual = 9.6615272e-07, No Iterations 0
DICPCG:  Solving for T, Initial residual = 9.6615272e-07, Final residual = 9.6615272e-07, No Iterations 0
DICPCG:  Solving for T, Initial residual = 9.6615272e-07, Final residual = 9.6615272e-07, No Iterations 0
ExecutionTime = 1.72 s  ClockTime = 2 s

Time = 47

DICPCG:  Solving for T, Initial residual = 9.6615272e-07, Final residual = 9.6615272e-07, No Iterations 0
DICPCG:  Solving for T, Initial residual = 9.6615272e-07, Final residual = 9.6615272e-07, No Iterations 0
DICPCG:  Solving for T, Initial residual = 9.6615272e-07, Final residual = 9.6615272e-07, No Iterations 0
ExecutionTime = 1.74 s  ClockTime = 2 s

Time = 48

DICPCG:  Solving for T, Initial residual = 9.6615272e-07, Final residual = 9.6615272e-07, No Iterations 0
DICPCG:  Solving for T, Initial residual = 9.6615272e-07, Final residual = 9.6615272e-07, No Iterations 0
DICPCG:  Solving for T, Initial residual = 9.6615272e-07, Final residual = 9.6615272e-07, No Iterations 0
ExecutionTime = 1.75 s  ClockTime = 2 s

Time = 49

DICPCG:  Solving for T, Initial residual = 9.6615272e-07, Final residual = 9.6615272e-07, No Iterations 0
DICPCG:  Solving for T, Initial residual = 9.6615272e-07, Final residual = 9.6615272e-07, No Iterations 0
DICPCG:  Solving for T, Initial residual = 9.6615272e-07, Final residual = 9.6615272e-07, No Iterations 0
ExecutionTime = 1.77 s  ClockTime = 2 s

Time = 50

DICPCG:  Solving for T, Initial residual = 9.6615272e-07, Final residual = 9.6615272e-07, No Iterations 0
DICPCG:  Solving for T, Initial residual = 9.6615272e-07, Final residual = 9.6615272e-07, No Iterations 0
DICPCG:  Solving for T, Initial residual = 9.6615272e-07, Final residual = 9.6615272e-07, No Iterations 0
ExecutionTime = 1.96 s  ClockTime = 2 s


The simulation of FOM is finishing at 1.96 s.


The solver is finishing at 2.06 s.

