/*---------------------------------------------------------------------------*\
| =========                 |                                                 |
| \\      /  F ield         | OpenFOAM: The Open Source CFD Toolbox           |
|  \\    /   O peration     | Version:  v2106                                 |
|   \\  /    A nd           | Website:  www.openfoam.com                      |
|    \\/     M anipulation  |                                                 |
\*---------------------------------------------------------------------------*/
Build  : _c15bfde3cb-20210624 OPENFOAM=2106
Arch   : "LSB;label=32;scalar=64"
Exec   : laplacianFoamDDGmodes
Date   : Aug 25 2022
Time   : 14:56:23
Host   : ites-fps-ruanLX
PID    : 41984
I/O    : uncollated
Case   : /home/ruan/Desktop/Shenhui_ruan/OpenFOAM/OpenFOAMsourcecode/laplacianFoamROM_DDGlobalModes/svdtest
nProcs : 1
trapFpe: Floating point exception trapping enabled (FOAM_SIGFPE).
fileModificationChecking : Monitoring run-time modified files using timeStampMaster (fileModificationSkew 5, maxFileModificationPolls 20)
allowSystemOperations : Allowing user-supplied system call operations

// * * * * * * * * * * * * * * * * * * * * * * * * * * * * * * * * * * * * * //
Create time

Create mesh for time = 0


SIMPLE: no convergence criteria found. Calculations will run for 20 steps.

Reading field T

Reading diffusivity DT

No finite volume options present

Calculating temperature distribution

snapshots extract
time Interval of snapshots is: 0.1

Time = 0.05

DICPCG:  Solving for T, Initial residual = 1, Final residual = 2.3689564e-07, No Iterations 10
DICPCG:  Solving for T, Initial residual = 8.534714e-08, Final residual = 8.534714e-08, No Iterations 0
DICPCG:  Solving for T, Initial residual = 8.534714e-08, Final residual = 8.534714e-08, No Iterations 0
ExecutionTime = 0.02 s  ClockTime = 0 s

Time = 0.1

DICPCG:  Solving for T, Initial residual = 0.13181093, Final residual = 7.867294e-07, No Iterations 8
DICPCG:  Solving for T, Initial residual = 6.4126299e-07, Final residual = 6.4126299e-07, No Iterations 0
DICPCG:  Solving for T, Initial residual = 6.4126299e-07, Final residual = 6.4126299e-07, No Iterations 0
ExecutionTime = 0.02 s  ClockTime = 0 s

runTime.value(): 0.1
snapshotsTime: 0.1
Time = 0.15

DICPCG:  Solving for T, Initial residual = 0.05965069, Final residual = 3.1789672e-07, No Iterations 8
DICPCG:  Solving for T, Initial residual = 2.8543448e-07, Final residual = 2.8543448e-07, No Iterations 0
DICPCG:  Solving for T, Initial residual = 2.8543448e-07, Final residual = 2.8543448e-07, No Iterations 0
ExecutionTime = 0.03 s  ClockTime = 0 s

Time = 0.2

DICPCG:  Solving for T, Initial residual = 0.038108173, Final residual = 8.2306876e-07, No Iterations 7
DICPCG:  Solving for T, Initial residual = 7.6575433e-07, Final residual = 7.6575433e-07, No Iterations 0
DICPCG:  Solving for T, Initial residual = 7.6575433e-07, Final residual = 7.6575433e-07, No Iterations 0
ExecutionTime = 0.03 s  ClockTime = 0 s

runTime.value(): 0.2
snapshotsTime: 0.2
Time = 0.25

DICPCG:  Solving for T, Initial residual = 0.028509479, Final residual = 5.5549946e-07, No Iterations 7
DICPCG:  Solving for T, Initial residual = 5.2674608e-07, Final residual = 5.2674608e-07, No Iterations 0
DICPCG:  Solving for T, Initial residual = 5.2674608e-07, Final residual = 5.2674608e-07, No Iterations 0
ExecutionTime = 0.03 s  ClockTime = 0 s

Time = 0.3

DICPCG:  Solving for T, Initial residual = 0.023137087, Final residual = 4.1554689e-07, No Iterations 7
DICPCG:  Solving for T, Initial residual = 3.9825508e-07, Final residual = 3.9825508e-07, No Iterations 0
DICPCG:  Solving for T, Initial residual = 3.9825508e-07, Final residual = 3.9825508e-07, No Iterations 0
ExecutionTime = 0.04 s  ClockTime = 0 s

Time = 0.35

DICPCG:  Solving for T, Initial residual = 0.01963268, Final residual = 3.3131527e-07, No Iterations 7
DICPCG:  Solving for T, Initial residual = 3.1988969e-07, Final residual = 3.1988969e-07, No Iterations 0
DICPCG:  Solving for T, Initial residual = 3.1988969e-07, Final residual = 3.1988969e-07, No Iterations 0
ExecutionTime = 0.05 s  ClockTime = 0 s

runTime.value(): 0.35
snapshotsTime: 0.3
Time = 0.4

DICPCG:  Solving for T, Initial residual = 0.017161429, Final residual = 2.7464156e-07, No Iterations 7
DICPCG:  Solving for T, Initial residual = 2.6645847e-07, Final residual = 2.6645847e-07, No Iterations 0
DICPCG:  Solving for T, Initial residual = 2.6645847e-07, Final residual = 2.6645847e-07, No Iterations 0
ExecutionTime = 0.05 s  ClockTime = 0 s

Time = 0.45

DICPCG:  Solving for T, Initial residual = 0.015309091, Final residual = 9.6103657e-07, No Iterations 6
DICPCG:  Solving for T, Initial residual = 9.3712725e-07, Final residual = 9.3712725e-07, No Iterations 0
DICPCG:  Solving for T, Initial residual = 9.3712725e-07, Final residual = 9.3712725e-07, No Iterations 0
ExecutionTime = 0.05 s  ClockTime = 0 s

runTime.value(): 0.45
snapshotsTime: 0.4
Time = 0.5

DICPCG:  Solving for T, Initial residual = 0.013867767, Final residual = 8.1648277e-07, No Iterations 6
DICPCG:  Solving for T, Initial residual = 7.9757874e-07, Final residual = 7.9757874e-07, No Iterations 0
DICPCG:  Solving for T, Initial residual = 7.9757874e-07, Final residual = 7.9757874e-07, No Iterations 0
ExecutionTime = 0.05 s  ClockTime = 0 s

Time = 0.55

DICPCG:  Solving for T, Initial residual = 0.012700925, Final residual = 7.048326e-07, No Iterations 6
DICPCG:  Solving for T, Initial residual = 6.9039193e-07, Final residual = 6.9039193e-07, No Iterations 0
DICPCG:  Solving for T, Initial residual = 6.9039193e-07, Final residual = 6.9039193e-07, No Iterations 0
ExecutionTime = 0.05 s  ClockTime = 0 s

runTime.value(): 0.55
snapshotsTime: 0.5
Time = 0.6

DICPCG:  Solving for T, Initial residual = 0.011749176, Final residual = 6.1814772e-07, No Iterations 6
DICPCG:  Solving for T, Initial residual = 6.0688238e-07, Final residual = 6.0688238e-07, No Iterations 0
DICPCG:  Solving for T, Initial residual = 6.0688238e-07, Final residual = 6.0688238e-07, No Iterations 0
ExecutionTime = 0.06 s  ClockTime = 0 s

runTime.value(): 0.6
snapshotsTime: 0.6
Time = 0.65

DICPCG:  Solving for T, Initial residual = 0.010946255, Final residual = 5.4942538e-07, No Iterations 6
DICPCG:  Solving for T, Initial residual = 5.4031266e-07, Final residual = 5.4031266e-07, No Iterations 0
DICPCG:  Solving for T, Initial residual = 5.4031266e-07, Final residual = 5.4031266e-07, No Iterations 0
ExecutionTime = 0.06 s  ClockTime = 0 s

Time = 0.7

DICPCG:  Solving for T, Initial residual = 0.010261302, Final residual = 4.9320267e-07, No Iterations 6
DICPCG:  Solving for T, Initial residual = 4.8556131e-07, Final residual = 4.8556131e-07, No Iterations 0
DICPCG:  Solving for T, Initial residual = 4.8556131e-07, Final residual = 4.8556131e-07, No Iterations 0
ExecutionTime = 0.06 s  ClockTime = 0 s

runTime.value(): 0.7
snapshotsTime: 0.7
Time = 0.75

DICPCG:  Solving for T, Initial residual = 0.0096705229, Final residual = 4.4707121e-07, No Iterations 6
DICPCG:  Solving for T, Initial residual = 4.4074839e-07, Final residual = 4.4074839e-07, No Iterations 0
DICPCG:  Solving for T, Initial residual = 4.4074839e-07, Final residual = 4.4074839e-07, No Iterations 0
ExecutionTime = 0.07 s  ClockTime = 0 s

Time = 0.8

DICPCG:  Solving for T, Initial residual = 0.0091591018, Final residual = 4.0917083e-07, No Iterations 6
DICPCG:  Solving for T, Initial residual = 4.0386169e-07, Final residual = 4.0386169e-07, No Iterations 0
DICPCG:  Solving for T, Initial residual = 4.0386169e-07, Final residual = 4.0386169e-07, No Iterations 0
ExecutionTime = 0.07 s  ClockTime = 0 s

runTime.value(): 0.8
snapshotsTime: 0.8
Time = 0.85

DICPCG:  Solving for T, Initial residual = 0.0087066112, Final residual = 3.7732056e-07, No Iterations 6
DICPCG:  Solving for T, Initial residual = 3.728959e-07, Final residual = 3.728959e-07, No Iterations 0
DICPCG:  Solving for T, Initial residual = 3.728959e-07, Final residual = 3.728959e-07, No Iterations 0
ExecutionTime = 0.07 s  ClockTime = 0 s

Time = 0.9

DICPCG:  Solving for T, Initial residual = 0.0083042444, Final residual = 3.5028662e-07, No Iterations 6
DICPCG:  Solving for T, Initial residual = 3.4627218e-07, Final residual = 3.4627218e-07, No Iterations 0
DICPCG:  Solving for T, Initial residual = 3.4627218e-07, Final residual = 3.4627218e-07, No Iterations 0
ExecutionTime = 0.07 s  ClockTime = 0 s

runTime.value(): 0.9
snapshotsTime: 0.9
Time = 0.95

DICPCG:  Solving for T, Initial residual = 0.007941739, Final residual = 3.2710337e-07, No Iterations 6
DICPCG:  Solving for T, Initial residual = 3.2361871e-07, Final residual = 3.2361871e-07, No Iterations 0
DICPCG:  Solving for T, Initial residual = 3.2361871e-07, Final residual = 3.2361871e-07, No Iterations 0
ExecutionTime = 0.08 s  ClockTime = 0 s

Time = 1

DICPCG:  Solving for T, Initial residual = 0.0076175184, Final residual = 3.0725403e-07, No Iterations 6
DICPCG:  Solving for T, Initial residual = 3.0420177e-07, Final residual = 3.0420177e-07, No Iterations 0
DICPCG:  Solving for T, Initial residual = 3.0420177e-07, Final residual = 3.0420177e-07, No Iterations 0
ExecutionTime = 0.08 s  ClockTime = 0 s

runTime.value(): 1
snapshotsTime: 1
Time = 1.05

DICPCG:  Solving for T, Initial residual = 0.0073257819, Final residual = 2.8989445e-07, No Iterations 6
DICPCG:  Solving for T, Initial residual = 2.8720118e-07, Final residual = 2.8720118e-07, No Iterations 0
DICPCG:  Solving for T, Initial residual = 2.8720118e-07, Final residual = 2.8720118e-07, No Iterations 0
ExecutionTime = 0.08 s  ClockTime = 0 s

Time = 1.1

DICPCG:  Solving for T, Initial residual = 0.0070608325, Final residual = 2.7478652e-07, No Iterations 6
DICPCG:  Solving for T, Initial residual = 2.724314e-07, Final residual = 2.724314e-07, No Iterations 0
DICPCG:  Solving for T, Initial residual = 2.724314e-07, Final residual = 2.724314e-07, No Iterations 0
ExecutionTime = 0.09 s  ClockTime = 0 s

runTime.value(): 1.1
snapshotsTime: 1.1
Time = 1.15

DICPCG:  Solving for T, Initial residual = 0.0068169062, Final residual = 2.6133581e-07, No Iterations 6
DICPCG:  Solving for T, Initial residual = 2.591813e-07, Final residual = 2.591813e-07, No Iterations 0
DICPCG:  Solving for T, Initial residual = 2.591813e-07, Final residual = 2.591813e-07, No Iterations 0
ExecutionTime = 0.09 s  ClockTime = 0 s

Time = 1.2

DICPCG:  Solving for T, Initial residual = 0.006591611, Final residual = 2.4930892e-07, No Iterations 6
DICPCG:  Solving for T, Initial residual = 2.4732552e-07, Final residual = 2.4732552e-07, No Iterations 0
DICPCG:  Solving for T, Initial residual = 2.4732552e-07, Final residual = 2.4732552e-07, No Iterations 0
ExecutionTime = 0.09 s  ClockTime = 0 s

runTime.value(): 1.2
snapshotsTime: 1.2
Time = 1.25

DICPCG:  Solving for T, Initial residual = 0.006383863, Final residual = 2.3852736e-07, No Iterations 6
DICPCG:  Solving for T, Initial residual = 2.3673553e-07, Final residual = 2.3673553e-07, No Iterations 0
DICPCG:  Solving for T, Initial residual = 2.3673553e-07, Final residual = 2.3673553e-07, No Iterations 0
ExecutionTime = 0.09 s  ClockTime = 0 s

Time = 1.3

DICPCG:  Solving for T, Initial residual = 0.0061927329, Final residual = 2.2883099e-07, No Iterations 6
DICPCG:  Solving for T, Initial residual = 2.272048e-07, Final residual = 2.272048e-07, No Iterations 0
DICPCG:  Solving for T, Initial residual = 2.272048e-07, Final residual = 2.272048e-07, No Iterations 0
ExecutionTime = 0.09 s  ClockTime = 0 s

runTime.value(): 1.3
snapshotsTime: 1.3
Time = 1.35

DICPCG:  Solving for T, Initial residual = 0.006016284, Final residual = 2.2008908e-07, No Iterations 6
DICPCG:  Solving for T, Initial residual = 2.1860684e-07, Final residual = 2.1860684e-07, No Iterations 0
DICPCG:  Solving for T, Initial residual = 2.1860684e-07, Final residual = 2.1860684e-07, No Iterations 0
ExecutionTime = 0.09 s  ClockTime = 0 s

Time = 1.4

DICPCG:  Solving for T, Initial residual = 0.0058528669, Final residual = 2.1205871e-07, No Iterations 6
DICPCG:  Solving for T, Initial residual = 2.1070302e-07, Final residual = 2.1070302e-07, No Iterations 0
DICPCG:  Solving for T, Initial residual = 2.1070302e-07, Final residual = 2.1070302e-07, No Iterations 0
ExecutionTime = 0.1 s  ClockTime = 0 s

runTime.value(): 1.4
snapshotsTime: 1.4
Time = 1.45

DICPCG:  Solving for T, Initial residual = 0.0057005761, Final residual = 2.0467377e-07, No Iterations 6
DICPCG:  Solving for T, Initial residual = 2.0344735e-07, Final residual = 2.0344735e-07, No Iterations 0
DICPCG:  Solving for T, Initial residual = 2.0344735e-07, Final residual = 2.0344735e-07, No Iterations 0
ExecutionTime = 0.1 s  ClockTime = 0 s

Time = 1.5

DICPCG:  Solving for T, Initial residual = 0.0055568712, Final residual = 1.9781391e-07, No Iterations 6
DICPCG:  Solving for T, Initial residual = 1.9667792e-07, Final residual = 1.9667792e-07, No Iterations 0
DICPCG:  Solving for T, Initial residual = 1.9667792e-07, Final residual = 1.9667792e-07, No Iterations 0
ExecutionTime = 0.1 s  ClockTime = 0 s

runTime.value(): 1.5
snapshotsTime: 1.5
Time = 1.55

DICPCG:  Solving for T, Initial residual = 0.0054214535, Final residual = 1.9141946e-07, No Iterations 6
DICPCG:  Solving for T, Initial residual = 1.9033692e-07, Final residual = 1.9033692e-07, No Iterations 0
DICPCG:  Solving for T, Initial residual = 1.9033692e-07, Final residual = 1.9033692e-07, No Iterations 0
ExecutionTime = 0.11 s  ClockTime = 0 s

Time = 1.6

DICPCG:  Solving for T, Initial residual = 0.0052937453, Final residual = 1.8550154e-07, No Iterations 6
DICPCG:  Solving for T, Initial residual = 1.8450045e-07, Final residual = 1.8450045e-07, No Iterations 0
DICPCG:  Solving for T, Initial residual = 1.8450045e-07, Final residual = 1.8450045e-07, No Iterations 0
ExecutionTime = 0.11 s  ClockTime = 0 s

runTime.value(): 1.6
snapshotsTime: 1.6
Time = 1.65

DICPCG:  Solving for T, Initial residual = 0.005173978, Final residual = 1.7997479e-07, No Iterations 6
DICPCG:  Solving for T, Initial residual = 1.7904687e-07, Final residual = 1.7904687e-07, No Iterations 0
DICPCG:  Solving for T, Initial residual = 1.7904687e-07, Final residual = 1.7904687e-07, No Iterations 0
ExecutionTime = 0.11 s  ClockTime = 0 s

Time = 1.7

DICPCG:  Solving for T, Initial residual = 0.0050614169, Final residual = 1.7485462e-07, No Iterations 6
DICPCG:  Solving for T, Initial residual = 1.739924e-07, Final residual = 1.739924e-07, No Iterations 0
DICPCG:  Solving for T, Initial residual = 1.739924e-07, Final residual = 1.739924e-07, No Iterations 0
ExecutionTime = 0.12 s  ClockTime = 0 s

runTime.value(): 1.7
snapshotsTime: 1.7
Time = 1.75

DICPCG:  Solving for T, Initial residual = 0.0049554136, Final residual = 1.7006379e-07, No Iterations 6
DICPCG:  Solving for T, Initial residual = 1.692609e-07, Final residual = 1.692609e-07, No Iterations 0
DICPCG:  Solving for T, Initial residual = 1.692609e-07, Final residual = 1.692609e-07, No Iterations 0
ExecutionTime = 0.12 s  ClockTime = 0 s

Time = 1.8

DICPCG:  Solving for T, Initial residual = 0.0048553939, Final residual = 1.6553965e-07, No Iterations 6
DICPCG:  Solving for T, Initial residual = 1.6479066e-07, Final residual = 1.6479066e-07, No Iterations 0
DICPCG:  Solving for T, Initial residual = 1.6479066e-07, Final residual = 1.6479066e-07, No Iterations 0
ExecutionTime = 0.12 s  ClockTime = 0 s

runTime.value(): 1.8
snapshotsTime: 1.8
Time = 1.85

DICPCG:  Solving for T, Initial residual = 0.0047608471, Final residual = 1.6132311e-07, No Iterations 6
DICPCG:  Solving for T, Initial residual = 1.6062292e-07, Final residual = 1.6062292e-07, No Iterations 0
DICPCG:  Solving for T, Initial residual = 1.6062292e-07, Final residual = 1.6062292e-07, No Iterations 0
ExecutionTime = 0.12 s  ClockTime = 0 s

Time = 1.9

DICPCG:  Solving for T, Initial residual = 0.0046711447, Final residual = 1.573314e-07, No Iterations 6
DICPCG:  Solving for T, Initial residual = 1.5668154e-07, Final residual = 1.5668154e-07, No Iterations 0
DICPCG:  Solving for T, Initial residual = 1.5668154e-07, Final residual = 1.5668154e-07, No Iterations 0
ExecutionTime = 0.13 s  ClockTime = 0 s

runTime.value(): 1.9
snapshotsTime: 1.9
Time = 1.95

DICPCG:  Solving for T, Initial residual = 0.0045848674, Final residual = 1.5348599e-07, No Iterations 6
DICPCG:  Solving for T, Initial residual = 1.5288959e-07, Final residual = 1.5288959e-07, No Iterations 0
DICPCG:  Solving for T, Initial residual = 1.5288959e-07, Final residual = 1.5288959e-07, No Iterations 0
ExecutionTime = 0.14 s  ClockTime = 0 s

Time = 2

DICPCG:  Solving for T, Initial residual = 0.0045024379, Final residual = 1.4981411e-07, No Iterations 6
DICPCG:  Solving for T, Initial residual = 1.4922702e-07, Final residual = 1.4922702e-07, No Iterations 0
DICPCG:  Solving for T, Initial residual = 1.4922702e-07, Final residual = 1.4922702e-07, No Iterations 0
ExecutionTime = 0.14 s  ClockTime = 0 s

runTime.value(): 2
snapshotsTime: 2
Time = 2.05

DICPCG:  Solving for T, Initial residual = 0.0044232049, Final residual = 1.4630648e-07, No Iterations 6
DICPCG:  Solving for T, Initial residual = 1.4575502e-07, Final residual = 1.4575502e-07, No Iterations 0
DICPCG:  Solving for T, Initial residual = 1.4575502e-07, Final residual = 1.4575502e-07, No Iterations 0
ExecutionTime = 0.14 s  ClockTime = 0 s

Time = 2.1

DICPCG:  Solving for T, Initial residual = 0.004347741, Final residual = 1.4297251e-07, No Iterations 6
DICPCG:  Solving for T, Initial residual = 1.4245382e-07, Final residual = 1.4245382e-07, No Iterations 0
DICPCG:  Solving for T, Initial residual = 1.4245382e-07, Final residual = 1.4245382e-07, No Iterations 0
ExecutionTime = 0.14 s  ClockTime = 0 s

runTime.value(): 2.1
snapshotsTime: 2.1
Time = 2.15

DICPCG:  Solving for T, Initial residual = 0.0042757657, Final residual = 1.3978701e-07, No Iterations 6
DICPCG:  Solving for T, Initial residual = 1.3929856e-07, Final residual = 1.3929856e-07, No Iterations 0
DICPCG:  Solving for T, Initial residual = 1.3929856e-07, Final residual = 1.3929856e-07, No Iterations 0
ExecutionTime = 0.15 s  ClockTime = 0 s

Time = 2.2

DICPCG:  Solving for T, Initial residual = 0.0042070247, Final residual = 9.8454524e-07, No Iterations 5
DICPCG:  Solving for T, Initial residual = 9.8122932e-07, Final residual = 9.8122932e-07, No Iterations 0
DICPCG:  Solving for T, Initial residual = 9.8122932e-07, Final residual = 9.8122932e-07, No Iterations 0
ExecutionTime = 0.15 s  ClockTime = 0 s

Time = 2.25

DICPCG:  Solving for T, Initial residual = 0.0041412792, Final residual = 9.5872796e-07, No Iterations 5
DICPCG:  Solving for T, Initial residual = 9.5561401e-07, Final residual = 9.5561401e-07, No Iterations 0
DICPCG:  Solving for T, Initial residual = 9.5561401e-07, Final residual = 9.5561401e-07, No Iterations 0
ExecutionTime = 0.15 s  ClockTime = 0 s

runTime.value(): 2.25
snapshotsTime: 2.2
Time = 2.3

DICPCG:  Solving for T, Initial residual = 0.0040783276, Final residual = 9.340203e-07, No Iterations 5
DICPCG:  Solving for T, Initial residual = 9.310929e-07, Final residual = 9.310929e-07, No Iterations 0
DICPCG:  Solving for T, Initial residual = 9.310929e-07, Final residual = 9.310929e-07, No Iterations 0
ExecutionTime = 0.15 s  ClockTime = 0 s

Time = 2.35

DICPCG:  Solving for T, Initial residual = 0.0040179769, Final residual = 9.1039646e-07, No Iterations 5
DICPCG:  Solving for T, Initial residual = 9.076415e-07, Final residual = 9.076415e-07, No Iterations 0
DICPCG:  Solving for T, Initial residual = 9.076415e-07, Final residual = 9.076415e-07, No Iterations 0
ExecutionTime = 0.15 s  ClockTime = 0 s

runTime.value(): 2.35
snapshotsTime: 2.3
Time = 2.4

DICPCG:  Solving for T, Initial residual = 0.0039600508, Final residual = 8.8767814e-07, No Iterations 5
DICPCG:  Solving for T, Initial residual = 8.850831e-07, Final residual = 8.850831e-07, No Iterations 0
DICPCG:  Solving for T, Initial residual = 8.850831e-07, Final residual = 8.850831e-07, No Iterations 0
ExecutionTime = 0.16 s  ClockTime = 0 s

Time = 2.45

DICPCG:  Solving for T, Initial residual = 0.003904388, Final residual = 8.6577938e-07, No Iterations 5
DICPCG:  Solving for T, Initial residual = 8.6333296e-07, Final residual = 8.6333296e-07, No Iterations 0
DICPCG:  Solving for T, Initial residual = 8.6333296e-07, Final residual = 8.6333296e-07, No Iterations 0
ExecutionTime = 0.16 s  ClockTime = 0 s

runTime.value(): 2.45
snapshotsTime: 2.4
Time = 2.5

DICPCG:  Solving for T, Initial residual = 0.0038506758, Final residual = 8.4470794e-07, No Iterations 5
DICPCG:  Solving for T, Initial residual = 8.4243572e-07, Final residual = 8.4243572e-07, No Iterations 0
DICPCG:  Solving for T, Initial residual = 8.4243572e-07, Final residual = 8.4243572e-07, No Iterations 0
ExecutionTime = 0.16 s  ClockTime = 0 s

Time = 2.55

DICPCG:  Solving for T, Initial residual = 0.0037983261, Final residual = 8.2433504e-07, No Iterations 5
DICPCG:  Solving for T, Initial residual = 8.2225989e-07, Final residual = 8.2225989e-07, No Iterations 0
DICPCG:  Solving for T, Initial residual = 8.2225989e-07, Final residual = 8.2225989e-07, No Iterations 0
ExecutionTime = 0.16 s  ClockTime = 0 s

runTime.value(): 2.55
snapshotsTime: 2.5
Time = 2.6

DICPCG:  Solving for T, Initial residual = 0.003747641, Final residual = 8.0461776e-07, No Iterations 5
DICPCG:  Solving for T, Initial residual = 8.0254458e-07, Final residual = 8.0254458e-07, No Iterations 0
DICPCG:  Solving for T, Initial residual = 8.0254458e-07, Final residual = 8.0254458e-07, No Iterations 0
ExecutionTime = 0.17 s  ClockTime = 0 s

Time = 2.65

DICPCG:  Solving for T, Initial residual = 0.0036982119, Final residual = 7.8547078e-07, No Iterations 5
DICPCG:  Solving for T, Initial residual = 7.8351263e-07, Final residual = 7.8351263e-07, No Iterations 0
DICPCG:  Solving for T, Initial residual = 7.8351263e-07, Final residual = 7.8351263e-07, No Iterations 0
ExecutionTime = 0.17 s  ClockTime = 0 s

runTime.value(): 2.65
snapshotsTime: 2.6
Time = 2.7

DICPCG:  Solving for T, Initial residual = 0.0036504871, Final residual = 7.6708036e-07, No Iterations 5
DICPCG:  Solving for T, Initial residual = 7.6522936e-07, Final residual = 7.6522936e-07, No Iterations 0
DICPCG:  Solving for T, Initial residual = 7.6522936e-07, Final residual = 7.6522936e-07, No Iterations 0
ExecutionTime = 0.17 s  ClockTime = 0 s

Time = 2.75

DICPCG:  Solving for T, Initial residual = 0.0036043639, Final residual = 7.4938985e-07, No Iterations 5
DICPCG:  Solving for T, Initial residual = 7.476388e-07, Final residual = 7.476388e-07, No Iterations 0
DICPCG:  Solving for T, Initial residual = 7.476388e-07, Final residual = 7.476388e-07, No Iterations 0
ExecutionTime = 0.17 s  ClockTime = 0 s

runTime.value(): 2.75
snapshotsTime: 2.7
Time = 2.8

DICPCG:  Solving for T, Initial residual = 0.0035597472, Final residual = 7.3233684e-07, No Iterations 5
DICPCG:  Solving for T, Initial residual = 7.3067918e-07, Final residual = 7.3067918e-07, No Iterations 0
DICPCG:  Solving for T, Initial residual = 7.3067918e-07, Final residual = 7.3067918e-07, No Iterations 0
ExecutionTime = 0.18 s  ClockTime = 0 s

Time = 2.85

DICPCG:  Solving for T, Initial residual = 0.0035165491, Final residual = 7.1592639e-07, No Iterations 5
DICPCG:  Solving for T, Initial residual = 7.1435597e-07, Final residual = 7.1435597e-07, No Iterations 0
DICPCG:  Solving for T, Initial residual = 7.1435597e-07, Final residual = 7.1435597e-07, No Iterations 0
ExecutionTime = 0.18 s  ClockTime = 0 s

runTime.value(): 2.85
snapshotsTime: 2.8
Time = 2.9

DICPCG:  Solving for T, Initial residual = 0.003474688, Final residual = 7.0015855e-07, No Iterations 5
DICPCG:  Solving for T, Initial residual = 6.9866964e-07, Final residual = 6.9866964e-07, No Iterations 0
DICPCG:  Solving for T, Initial residual = 6.9866964e-07, Final residual = 6.9866964e-07, No Iterations 0
ExecutionTime = 0.18 s  ClockTime = 0 s

Time = 2.95

DICPCG:  Solving for T, Initial residual = 0.003434088, Final residual = 6.8500199e-07, No Iterations 5
DICPCG:  Solving for T, Initial residual = 6.8358931e-07, Final residual = 6.8358931e-07, No Iterations 0
DICPCG:  Solving for T, Initial residual = 6.8358931e-07, Final residual = 6.8358931e-07, No Iterations 0
ExecutionTime = 0.18 s  ClockTime = 0 s

runTime.value(): 2.95
snapshotsTime: 2.9
Time = 3

DICPCG:  Solving for T, Initial residual = 0.0033946789, Final residual = 6.7035262e-07, No Iterations 5
DICPCG:  Solving for T, Initial residual = 6.6901145e-07, Final residual = 6.6901145e-07, No Iterations 0
DICPCG:  Solving for T, Initial residual = 6.6901145e-07, Final residual = 6.6901145e-07, No Iterations 0
ExecutionTime = 0.19 s  ClockTime = 0 s

Time = 3.05

DICPCG:  Solving for T, Initial residual = 0.003356395, Final residual = 6.5617035e-07, No Iterations 5
DICPCG:  Solving for T, Initial residual = 6.5489633e-07, Final residual = 6.5489633e-07, No Iterations 0
DICPCG:  Solving for T, Initial residual = 6.5489633e-07, Final residual = 6.5489633e-07, No Iterations 0
ExecutionTime = 0.19 s  ClockTime = 0 s

runTime.value(): 3.05
snapshotsTime: 3
Time = 3.1

DICPCG:  Solving for T, Initial residual = 0.0033191753, Final residual = 6.4244321e-07, No Iterations 5
DICPCG:  Solving for T, Initial residual = 6.4123228e-07, Final residual = 6.4123228e-07, No Iterations 0
DICPCG:  Solving for T, Initial residual = 6.4123228e-07, Final residual = 6.4123228e-07, No Iterations 0
ExecutionTime = 0.19 s  ClockTime = 0 s

Time = 3.15

DICPCG:  Solving for T, Initial residual = 0.0032829632, Final residual = 6.2921427e-07, No Iterations 5
DICPCG:  Solving for T, Initial residual = 6.2806255e-07, Final residual = 6.2806255e-07, No Iterations 0
DICPCG:  Solving for T, Initial residual = 6.2806255e-07, Final residual = 6.2806255e-07, No Iterations 0
ExecutionTime = 0.19 s  ClockTime = 0 s

runTime.value(): 3.15
snapshotsTime: 3.1
Time = 3.2

DICPCG:  Solving for T, Initial residual = 0.0032477055, Final residual = 6.1640527e-07, No Iterations 5
DICPCG:  Solving for T, Initial residual = 6.1530926e-07, Final residual = 6.1530926e-07, No Iterations 0
DICPCG:  Solving for T, Initial residual = 6.1530926e-07, Final residual = 6.1530926e-07, No Iterations 0
ExecutionTime = 0.2 s  ClockTime = 0 s

Time = 3.25

DICPCG:  Solving for T, Initial residual = 0.0032133528, Final residual = 6.0399221e-07, No Iterations 5
DICPCG:  Solving for T, Initial residual = 6.0294866e-07, Final residual = 6.0294866e-07, No Iterations 0
DICPCG:  Solving for T, Initial residual = 6.0294866e-07, Final residual = 6.0294866e-07, No Iterations 0
ExecutionTime = 0.2 s  ClockTime = 0 s

runTime.value(): 3.25
snapshotsTime: 3.2
Time = 3.3

DICPCG:  Solving for T, Initial residual = 0.003179795, Final residual = 5.9195927e-07, No Iterations 5
DICPCG:  Solving for T, Initial residual = 5.9097704e-07, Final residual = 5.9097704e-07, No Iterations 0
DICPCG:  Solving for T, Initial residual = 5.9097704e-07, Final residual = 5.9097704e-07, No Iterations 0
ExecutionTime = 0.2 s  ClockTime = 0 s

Time = 3.35

DICPCG:  Solving for T, Initial residual = 0.0031466754, Final residual = 5.8023933e-07, No Iterations 5
DICPCG:  Solving for T, Initial residual = 5.793796e-07, Final residual = 5.793796e-07, No Iterations 0
DICPCG:  Solving for T, Initial residual = 5.793796e-07, Final residual = 5.793796e-07, No Iterations 0
ExecutionTime = 0.2 s  ClockTime = 0 s

runTime.value(): 3.35
snapshotsTime: 3.3
Time = 3.4

DICPCG:  Solving for T, Initial residual = 0.0031143346, Final residual = 5.6889843e-07, No Iterations 5
DICPCG:  Solving for T, Initial residual = 5.680039e-07, Final residual = 5.680039e-07, No Iterations 0
DICPCG:  Solving for T, Initial residual = 5.680039e-07, Final residual = 5.680039e-07, No Iterations 0
ExecutionTime = 0.21 s  ClockTime = 0 s

Time = 3.45

DICPCG:  Solving for T, Initial residual = 0.0030823342, Final residual = 5.578725e-07, No Iterations 5
DICPCG:  Solving for T, Initial residual = 5.5702018e-07, Final residual = 5.5702018e-07, No Iterations 0
DICPCG:  Solving for T, Initial residual = 5.5702018e-07, Final residual = 5.5702018e-07, No Iterations 0
ExecutionTime = 0.21 s  ClockTime = 0 s

runTime.value(): 3.45
snapshotsTime: 3.4
Time = 3.5

DICPCG:  Solving for T, Initial residual = 0.0030510691, Final residual = 5.4720697e-07, No Iterations 5
DICPCG:  Solving for T, Initial residual = 5.4639445e-07, Final residual = 5.4639445e-07, No Iterations 0
DICPCG:  Solving for T, Initial residual = 5.4639445e-07, Final residual = 5.4639445e-07, No Iterations 0
ExecutionTime = 0.21 s  ClockTime = 0 s

Time = 3.55

DICPCG:  Solving for T, Initial residual = 0.0030205045, Final residual = 5.3691362e-07, No Iterations 5
DICPCG:  Solving for T, Initial residual = 5.3613861e-07, Final residual = 5.3613861e-07, No Iterations 0
DICPCG:  Solving for T, Initial residual = 5.3613861e-07, Final residual = 5.3613861e-07, No Iterations 0
ExecutionTime = 0.21 s  ClockTime = 0 s

runTime.value(): 3.55
snapshotsTime: 3.5
Time = 3.6

DICPCG:  Solving for T, Initial residual = 0.0029906079, Final residual = 5.2692711e-07, No Iterations 5
DICPCG:  Solving for T, Initial residual = 5.2618753e-07, Final residual = 5.2618753e-07, No Iterations 0
DICPCG:  Solving for T, Initial residual = 5.2618753e-07, Final residual = 5.2618753e-07, No Iterations 0
ExecutionTime = 0.21 s  ClockTime = 0 s

Time = 3.65

DICPCG:  Solving for T, Initial residual = 0.0029613487, Final residual = 5.1725764e-07, No Iterations 5
DICPCG:  Solving for T, Initial residual = 5.1655153e-07, Final residual = 5.1655153e-07, No Iterations 0
DICPCG:  Solving for T, Initial residual = 5.1655153e-07, Final residual = 5.1655153e-07, No Iterations 0
ExecutionTime = 0.21 s  ClockTime = 0 s

runTime.value(): 3.65
snapshotsTime: 3.6
Time = 3.7

DICPCG:  Solving for T, Initial residual = 0.0029326982, Final residual = 5.0789088e-07, No Iterations 5
DICPCG:  Solving for T, Initial residual = 5.0721641e-07, Final residual = 5.0721641e-07, No Iterations 0
DICPCG:  Solving for T, Initial residual = 5.0721641e-07, Final residual = 5.0721641e-07, No Iterations 0
ExecutionTime = 0.23 s  ClockTime = 0 s

Time = 3.75

DICPCG:  Solving for T, Initial residual = 0.0029046293, Final residual = 4.9884807e-07, No Iterations 5
DICPCG:  Solving for T, Initial residual = 4.9820347e-07, Final residual = 4.9820347e-07, No Iterations 0
DICPCG:  Solving for T, Initial residual = 4.9820347e-07, Final residual = 4.9820347e-07, No Iterations 0
ExecutionTime = 0.23 s  ClockTime = 0 s

runTime.value(): 3.75
snapshotsTime: 3.7
Time = 3.8

DICPCG:  Solving for T, Initial residual = 0.0028771167, Final residual = 4.9006446e-07, No Iterations 5
DICPCG:  Solving for T, Initial residual = 4.8944815e-07, Final residual = 4.8944815e-07, No Iterations 0
DICPCG:  Solving for T, Initial residual = 4.8944815e-07, Final residual = 4.8944815e-07, No Iterations 0
ExecutionTime = 0.23 s  ClockTime = 0 s

Time = 3.85

DICPCG:  Solving for T, Initial residual = 0.0028501364, Final residual = 4.8152765e-07, No Iterations 5
DICPCG:  Solving for T, Initial residual = 4.8093814e-07, Final residual = 4.8093814e-07, No Iterations 0
DICPCG:  Solving for T, Initial residual = 4.8093814e-07, Final residual = 4.8093814e-07, No Iterations 0
ExecutionTime = 0.23 s  ClockTime = 0 s

runTime.value(): 3.85
snapshotsTime: 3.8
Time = 3.9

DICPCG:  Solving for T, Initial residual = 0.002823666, Final residual = 4.7323351e-07, No Iterations 5
DICPCG:  Solving for T, Initial residual = 4.726694e-07, Final residual = 4.726694e-07, No Iterations 0
DICPCG:  Solving for T, Initial residual = 4.726694e-07, Final residual = 4.726694e-07, No Iterations 0
ExecutionTime = 0.23 s  ClockTime = 0 s

Time = 3.95

DICPCG:  Solving for T, Initial residual = 0.0027976843, Final residual = 4.6519377e-07, No Iterations 5
DICPCG:  Solving for T, Initial residual = 4.6465373e-07, Final residual = 4.6465373e-07, No Iterations 0
DICPCG:  Solving for T, Initial residual = 4.6465373e-07, Final residual = 4.6465373e-07, No Iterations 0
ExecutionTime = 0.23 s  ClockTime = 0 s

runTime.value(): 3.95
snapshotsTime: 3.9
Time = 4

DICPCG:  Solving for T, Initial residual = 0.0027721712, Final residual = 4.5740347e-07, No Iterations 5
DICPCG:  Solving for T, Initial residual = 4.5688623e-07, Final residual = 4.5688623e-07, No Iterations 0
DICPCG:  Solving for T, Initial residual = 4.5688623e-07, Final residual = 4.5688623e-07, No Iterations 0
ExecutionTime = 0.24 s  ClockTime = 0 s

Time = 4.05

DICPCG:  Solving for T, Initial residual = 0.0027471079, Final residual = 4.4984245e-07, No Iterations 5
DICPCG:  Solving for T, Initial residual = 4.4934683e-07, Final residual = 4.4934683e-07, No Iterations 0
DICPCG:  Solving for T, Initial residual = 4.4934683e-07, Final residual = 4.4934683e-07, No Iterations 0
ExecutionTime = 0.24 s  ClockTime = 0 s

runTime.value(): 4.05
snapshotsTime: 4
Time = 4.1

DICPCG:  Solving for T, Initial residual = 0.0027224767, Final residual = 4.4248126e-07, No Iterations 5
DICPCG:  Solving for T, Initial residual = 4.4200619e-07, Final residual = 4.4200619e-07, No Iterations 0
DICPCG:  Solving for T, Initial residual = 4.4200619e-07, Final residual = 4.4200619e-07, No Iterations 0
ExecutionTime = 0.24 s  ClockTime = 0 s

Time = 4.15

DICPCG:  Solving for T, Initial residual = 0.0026982607, Final residual = 4.3536217e-07, No Iterations 5
DICPCG:  Solving for T, Initial residual = 4.3490658e-07, Final residual = 4.3490658e-07, No Iterations 0
DICPCG:  Solving for T, Initial residual = 4.3490658e-07, Final residual = 4.3490658e-07, No Iterations 0
ExecutionTime = 0.24 s  ClockTime = 0 s

runTime.value(): 4.15
snapshotsTime: 4.1
Time = 4.2

DICPCG:  Solving for T, Initial residual = 0.0026744441, Final residual = 4.2843784e-07, No Iterations 5
DICPCG:  Solving for T, Initial residual = 4.2800075e-07, Final residual = 4.2800075e-07, No Iterations 0
DICPCG:  Solving for T, Initial residual = 4.2800075e-07, Final residual = 4.2800075e-07, No Iterations 0
ExecutionTime = 0.24 s  ClockTime = 0 s

Time = 4.25

DICPCG:  Solving for T, Initial residual = 0.0026510118, Final residual = 4.217057e-07, No Iterations 5
DICPCG:  Solving for T, Initial residual = 4.2128621e-07, Final residual = 4.2128621e-07, No Iterations 0
DICPCG:  Solving for T, Initial residual = 4.2128621e-07, Final residual = 4.2128621e-07, No Iterations 0
ExecutionTime = 0.25 s  ClockTime = 0 s

runTime.value(): 4.25
snapshotsTime: 4.2
Time = 4.3

DICPCG:  Solving for T, Initial residual = 0.0026279498, Final residual = 4.1515602e-07, No Iterations 5
DICPCG:  Solving for T, Initial residual = 4.1475325e-07, Final residual = 4.1475325e-07, No Iterations 0
DICPCG:  Solving for T, Initial residual = 4.1475325e-07, Final residual = 4.1475325e-07, No Iterations 0
ExecutionTime = 0.25 s  ClockTime = 0 s

Time = 4.35

DICPCG:  Solving for T, Initial residual = 0.0026052445, Final residual = 4.0881031e-07, No Iterations 5
DICPCG:  Solving for T, Initial residual = 4.0842344e-07, Final residual = 4.0842344e-07, No Iterations 0
DICPCG:  Solving for T, Initial residual = 4.0842344e-07, Final residual = 4.0842344e-07, No Iterations 0
ExecutionTime = 0.25 s  ClockTime = 0 s

runTime.value(): 4.35
snapshotsTime: 4.3
Time = 4.4

DICPCG:  Solving for T, Initial residual = 0.0025828834, Final residual = 4.0264463e-07, No Iterations 5
DICPCG:  Solving for T, Initial residual = 4.0227288e-07, Final residual = 4.0227288e-07, No Iterations 0
DICPCG:  Solving for T, Initial residual = 4.0227288e-07, Final residual = 4.0227288e-07, No Iterations 0
ExecutionTime = 0.26 s  ClockTime = 0 s

Time = 4.45

DICPCG:  Solving for T, Initial residual = 0.0025606707, Final residual = 3.9661525e-07, No Iterations 5
DICPCG:  Solving for T, Initial residual = 3.9628633e-07, Final residual = 3.9628633e-07, No Iterations 0
DICPCG:  Solving for T, Initial residual = 3.9628633e-07, Final residual = 3.9628633e-07, No Iterations 0
ExecutionTime = 0.26 s  ClockTime = 0 s

runTime.value(): 4.45
snapshotsTime: 4.4
Time = 4.5

DICPCG:  Solving for T, Initial residual = 0.0025387306, Final residual = 3.9074525e-07, No Iterations 5
DICPCG:  Solving for T, Initial residual = 3.9043617e-07, Final residual = 3.9043617e-07, No Iterations 0
DICPCG:  Solving for T, Initial residual = 3.9043617e-07, Final residual = 3.9043617e-07, No Iterations 0
ExecutionTime = 0.26 s  ClockTime = 0 s

Time = 4.55

DICPCG:  Solving for T, Initial residual = 0.0025170133, Final residual = 3.8502003e-07, No Iterations 5
DICPCG:  Solving for T, Initial residual = 3.8470246e-07, Final residual = 3.8470246e-07, No Iterations 0
DICPCG:  Solving for T, Initial residual = 3.8470246e-07, Final residual = 3.8470246e-07, No Iterations 0
ExecutionTime = 0.26 s  ClockTime = 0 s

runTime.value(): 4.55
snapshotsTime: 4.5
Time = 4.6

DICPCG:  Solving for T, Initial residual = 0.0024954702, Final residual = 3.7944217e-07, No Iterations 5
DICPCG:  Solving for T, Initial residual = 3.7913707e-07, Final residual = 3.7913707e-07, No Iterations 0
DICPCG:  Solving for T, Initial residual = 3.7913707e-07, Final residual = 3.7913707e-07, No Iterations 0
ExecutionTime = 0.26 s  ClockTime = 0 s

Time = 4.65

DICPCG:  Solving for T, Initial residual = 0.0024742313, Final residual = 3.7400827e-07, No Iterations 5
DICPCG:  Solving for T, Initial residual = 3.7371506e-07, Final residual = 3.7371506e-07, No Iterations 0
DICPCG:  Solving for T, Initial residual = 3.7371506e-07, Final residual = 3.7371506e-07, No Iterations 0
ExecutionTime = 0.27 s  ClockTime = 0 s

runTime.value(): 4.65
snapshotsTime: 4.6
Time = 4.7

DICPCG:  Solving for T, Initial residual = 0.002453287, Final residual = 3.6872722e-07, No Iterations 5
DICPCG:  Solving for T, Initial residual = 3.6844533e-07, Final residual = 3.6844533e-07, No Iterations 0
DICPCG:  Solving for T, Initial residual = 3.6844533e-07, Final residual = 3.6844533e-07, No Iterations 0
ExecutionTime = 0.27 s  ClockTime = 0 s

Time = 4.75

DICPCG:  Solving for T, Initial residual = 0.002432628, Final residual = 3.6359759e-07, No Iterations 5
DICPCG:  Solving for T, Initial residual = 3.6332648e-07, Final residual = 3.6332648e-07, No Iterations 0
DICPCG:  Solving for T, Initial residual = 3.6332648e-07, Final residual = 3.6332648e-07, No Iterations 0
ExecutionTime = 0.27 s  ClockTime = 0 s

runTime.value(): 4.75
snapshotsTime: 4.7
Time = 4.8

DICPCG:  Solving for T, Initial residual = 0.0024122455, Final residual = 3.5860056e-07, No Iterations 5
DICPCG:  Solving for T, Initial residual = 3.5833974e-07, Final residual = 3.5833974e-07, No Iterations 0
DICPCG:  Solving for T, Initial residual = 3.5833974e-07, Final residual = 3.5833974e-07, No Iterations 0
ExecutionTime = 0.27 s  ClockTime = 0 s

Time = 4.85

DICPCG:  Solving for T, Initial residual = 0.0023921312, Final residual = 3.5373763e-07, No Iterations 5
DICPCG:  Solving for T, Initial residual = 3.5348662e-07, Final residual = 3.5348662e-07, No Iterations 0
DICPCG:  Solving for T, Initial residual = 3.5348662e-07, Final residual = 3.5348662e-07, No Iterations 0
ExecutionTime = 0.28 s  ClockTime = 0 s

runTime.value(): 4.85
snapshotsTime: 4.8
Time = 4.9

DICPCG:  Solving for T, Initial residual = 0.0023722771, Final residual = 3.4899749e-07, No Iterations 5
DICPCG:  Solving for T, Initial residual = 3.4875584e-07, Final residual = 3.4875584e-07, No Iterations 0
DICPCG:  Solving for T, Initial residual = 3.4875584e-07, Final residual = 3.4875584e-07, No Iterations 0
ExecutionTime = 0.28 s  ClockTime = 0 s

Time = 4.95

DICPCG:  Solving for T, Initial residual = 0.0023526756, Final residual = 3.4438952e-07, No Iterations 5
DICPCG:  Solving for T, Initial residual = 3.441568e-07, Final residual = 3.441568e-07, No Iterations 0
DICPCG:  Solving for T, Initial residual = 3.441568e-07, Final residual = 3.441568e-07, No Iterations 0
ExecutionTime = 0.28 s  ClockTime = 0 s

runTime.value(): 4.95
snapshotsTime: 4.9
Time = 5

DICPCG:  Solving for T, Initial residual = 0.0023333195, Final residual = 3.3991218e-07, No Iterations 5
DICPCG:  Solving for T, Initial residual = 3.3968798e-07, Final residual = 3.3968798e-07, No Iterations 0
DICPCG:  Solving for T, Initial residual = 3.3968798e-07, Final residual = 3.3968798e-07, No Iterations 0
ExecutionTime = 0.28 s  ClockTime = 0 s

Time = 5.05

DICPCG:  Solving for T, Initial residual = 0.0023142019, Final residual = 3.355474e-07, No Iterations 5
DICPCG:  Solving for T, Initial residual = 3.3533134e-07, Final residual = 3.3533134e-07, No Iterations 0
DICPCG:  Solving for T, Initial residual = 3.3533134e-07, Final residual = 3.3533134e-07, No Iterations 0
ExecutionTime = 0.28 s  ClockTime = 0 s

runTime.value(): 5.05
snapshotsTime: 5
Time = 5.1

DICPCG:  Solving for T, Initial residual = 0.0022953164, Final residual = 3.3129552e-07, No Iterations 5
DICPCG:  Solving for T, Initial residual = 3.3108723e-07, Final residual = 3.3108723e-07, No Iterations 0
DICPCG:  Solving for T, Initial residual = 3.3108723e-07, Final residual = 3.3108723e-07, No Iterations 0
ExecutionTime = 0.29 s  ClockTime = 0 s

Time = 5.15

DICPCG:  Solving for T, Initial residual = 0.0022766565, Final residual = 3.2716016e-07, No Iterations 5
DICPCG:  Solving for T, Initial residual = 3.2695929e-07, Final residual = 3.2695929e-07, No Iterations 0
DICPCG:  Solving for T, Initial residual = 3.2695929e-07, Final residual = 3.2695929e-07, No Iterations 0
ExecutionTime = 0.29 s  ClockTime = 0 s

runTime.value(): 5.15
snapshotsTime: 5.1
Time = 5.2

DICPCG:  Solving for T, Initial residual = 0.0022582164, Final residual = 3.2312817e-07, No Iterations 5
DICPCG:  Solving for T, Initial residual = 3.229344e-07, Final residual = 3.229344e-07, No Iterations 0
DICPCG:  Solving for T, Initial residual = 3.229344e-07, Final residual = 3.229344e-07, No Iterations 0
ExecutionTime = 0.29 s  ClockTime = 0 s

Time = 5.25

DICPCG:  Solving for T, Initial residual = 0.0022399903, Final residual = 3.1921585e-07, No Iterations 5
DICPCG:  Solving for T, Initial residual = 3.1902886e-07, Final residual = 3.1902886e-07, No Iterations 0
DICPCG:  Solving for T, Initial residual = 3.1902886e-07, Final residual = 3.1902886e-07, No Iterations 0
ExecutionTime = 0.29 s  ClockTime = 0 s

runTime.value(): 5.25
snapshotsTime: 5.2
Time = 5.3

DICPCG:  Solving for T, Initial residual = 0.0022219729, Final residual = 3.153985e-07, No Iterations 5
DICPCG:  Solving for T, Initial residual = 3.15218e-07, Final residual = 3.15218e-07, No Iterations 0
DICPCG:  Solving for T, Initial residual = 3.15218e-07, Final residual = 3.15218e-07, No Iterations 0
ExecutionTime = 0.29 s  ClockTime = 0 s

Time = 5.35

DICPCG:  Solving for T, Initial residual = 0.0022041588, Final residual = 3.1167396e-07, No Iterations 5
DICPCG:  Solving for T, Initial residual = 3.1149967e-07, Final residual = 3.1149967e-07, No Iterations 0
DICPCG:  Solving for T, Initial residual = 3.1149967e-07, Final residual = 3.1149967e-07, No Iterations 0
ExecutionTime = 0.29 s  ClockTime = 0 s

runTime.value(): 5.35
snapshotsTime: 5.3
Time = 5.4

DICPCG:  Solving for T, Initial residual = 0.0021865431, Final residual = 3.0805316e-07, No Iterations 5
DICPCG:  Solving for T, Initial residual = 3.0788481e-07, Final residual = 3.0788481e-07, No Iterations 0
DICPCG:  Solving for T, Initial residual = 3.0788481e-07, Final residual = 3.0788481e-07, No Iterations 0
ExecutionTime = 0.3 s  ClockTime = 0 s

Time = 5.45

DICPCG:  Solving for T, Initial residual = 0.0021691211, Final residual = 3.0452339e-07, No Iterations 5
DICPCG:  Solving for T, Initial residual = 3.0436072e-07, Final residual = 3.0436072e-07, No Iterations 0
DICPCG:  Solving for T, Initial residual = 3.0436072e-07, Final residual = 3.0436072e-07, No Iterations 0
ExecutionTime = 0.3 s  ClockTime = 0 s

runTime.value(): 5.45
snapshotsTime: 5.4
Time = 5.5

DICPCG:  Solving for T, Initial residual = 0.0021518882, Final residual = 3.0107364e-07, No Iterations 5
DICPCG:  Solving for T, Initial residual = 3.0091642e-07, Final residual = 3.0091642e-07, No Iterations 0
DICPCG:  Solving for T, Initial residual = 3.0091642e-07, Final residual = 3.0091642e-07, No Iterations 0
ExecutionTime = 0.3 s  ClockTime = 0 s

Time = 5.55

DICPCG:  Solving for T, Initial residual = 0.0021348401, Final residual = 2.9770375e-07, No Iterations 5
DICPCG:  Solving for T, Initial residual = 2.9755176e-07, Final residual = 2.9755176e-07, No Iterations 0
DICPCG:  Solving for T, Initial residual = 2.9755176e-07, Final residual = 2.9755176e-07, No Iterations 0
ExecutionTime = 0.3 s  ClockTime = 0 s

runTime.value(): 5.55
snapshotsTime: 5.5
Time = 5.6

DICPCG:  Solving for T, Initial residual = 0.0021179724, Final residual = 2.9441804e-07, No Iterations 5
DICPCG:  Solving for T, Initial residual = 2.9427105e-07, Final residual = 2.9427105e-07, No Iterations 0
DICPCG:  Solving for T, Initial residual = 2.9427105e-07, Final residual = 2.9427105e-07, No Iterations 0
ExecutionTime = 0.31 s  ClockTime = 0 s

Time = 5.65

DICPCG:  Solving for T, Initial residual = 0.0021012813, Final residual = 2.9121481e-07, No Iterations 5
DICPCG:  Solving for T, Initial residual = 2.9107261e-07, Final residual = 2.9107261e-07, No Iterations 0
DICPCG:  Solving for T, Initial residual = 2.9107261e-07, Final residual = 2.9107261e-07, No Iterations 0
ExecutionTime = 0.31 s  ClockTime = 0 s

runTime.value(): 5.65
snapshotsTime: 5.6
Time = 5.7

DICPCG:  Solving for T, Initial residual = 0.0020847629, Final residual = 2.8808834e-07, No Iterations 5
DICPCG:  Solving for T, Initial residual = 2.8795075e-07, Final residual = 2.8795075e-07, No Iterations 0
DICPCG:  Solving for T, Initial residual = 2.8795075e-07, Final residual = 2.8795075e-07, No Iterations 0
ExecutionTime = 0.31 s  ClockTime = 0 s

Time = 5.75

DICPCG:  Solving for T, Initial residual = 0.0020684135, Final residual = 2.8502714e-07, No Iterations 5
DICPCG:  Solving for T, Initial residual = 2.8489396e-07, Final residual = 2.8489396e-07, No Iterations 0
DICPCG:  Solving for T, Initial residual = 2.8489396e-07, Final residual = 2.8489396e-07, No Iterations 0
ExecutionTime = 0.31 s  ClockTime = 0 s

runTime.value(): 5.75
snapshotsTime: 5.7
Time = 5.8

DICPCG:  Solving for T, Initial residual = 0.0020522295, Final residual = 2.8203397e-07, No Iterations 5
DICPCG:  Solving for T, Initial residual = 2.8190502e-07, Final residual = 2.8190502e-07, No Iterations 0
DICPCG:  Solving for T, Initial residual = 2.8190502e-07, Final residual = 2.8190502e-07, No Iterations 0
ExecutionTime = 0.31 s  ClockTime = 0 s

Time = 5.85

DICPCG:  Solving for T, Initial residual = 0.0020362075, Final residual = 2.7911469e-07, No Iterations 5
DICPCG:  Solving for T, Initial residual = 2.7898981e-07, Final residual = 2.7898981e-07, No Iterations 0
DICPCG:  Solving for T, Initial residual = 2.7898981e-07, Final residual = 2.7898981e-07, No Iterations 0
ExecutionTime = 0.32 s  ClockTime = 0 s

runTime.value(): 5.85
snapshotsTime: 5.8
Time = 5.9

DICPCG:  Solving for T, Initial residual = 0.0020203444, Final residual = 2.7625558e-07, No Iterations 5
DICPCG:  Solving for T, Initial residual = 2.7613461e-07, Final residual = 2.7613461e-07, No Iterations 0
DICPCG:  Solving for T, Initial residual = 2.7613461e-07, Final residual = 2.7613461e-07, No Iterations 0
ExecutionTime = 0.32 s  ClockTime = 0 s

Time = 5.95

DICPCG:  Solving for T, Initial residual = 0.0020046369, Final residual = 2.7345309e-07, No Iterations 5
DICPCG:  Solving for T, Initial residual = 2.7333587e-07, Final residual = 2.7333587e-07, No Iterations 0
DICPCG:  Solving for T, Initial residual = 2.7333587e-07, Final residual = 2.7333587e-07, No Iterations 0
ExecutionTime = 0.32 s  ClockTime = 0 s

runTime.value(): 5.95
snapshotsTime: 5.9
Time = 6

DICPCG:  Solving for T, Initial residual = 0.001989082, Final residual = 2.7071424e-07, No Iterations 5
DICPCG:  Solving for T, Initial residual = 2.7060063e-07, Final residual = 2.7060063e-07, No Iterations 0
DICPCG:  Solving for T, Initial residual = 2.7060063e-07, Final residual = 2.7060063e-07, No Iterations 0
ExecutionTime = 0.32 s  ClockTime = 0 s

Time = 6.05

DICPCG:  Solving for T, Initial residual = 0.0019735766, Final residual = 2.6801508e-07, No Iterations 5
DICPCG:  Solving for T, Initial residual = 2.6791855e-07, Final residual = 2.6791855e-07, No Iterations 0
DICPCG:  Solving for T, Initial residual = 2.6791855e-07, Final residual = 2.6791855e-07, No Iterations 0
ExecutionTime = 0.33 s  ClockTime = 0 s

runTime.value(): 6.05
snapshotsTime: 6
Time = 6.1

DICPCG:  Solving for T, Initial residual = 0.0019582014, Final residual = 2.653647e-07, No Iterations 5
DICPCG:  Solving for T, Initial residual = 2.6528006e-07, Final residual = 2.6528006e-07, No Iterations 0
DICPCG:  Solving for T, Initial residual = 2.6528006e-07, Final residual = 2.6528006e-07, No Iterations 0
ExecutionTime = 0.33 s  ClockTime = 0 s

Time = 6.15

DICPCG:  Solving for T, Initial residual = 0.001942947, Final residual = 2.627704e-07, No Iterations 5
DICPCG:  Solving for T, Initial residual = 2.6267636e-07, Final residual = 2.6267636e-07, No Iterations 0
DICPCG:  Solving for T, Initial residual = 2.6267636e-07, Final residual = 2.6267636e-07, No Iterations 0
ExecutionTime = 0.33 s  ClockTime = 0 s

runTime.value(): 6.15
snapshotsTime: 6.1
Time = 6.2

DICPCG:  Solving for T, Initial residual = 0.0019277481, Final residual = 2.6021884e-07, No Iterations 5
DICPCG:  Solving for T, Initial residual = 2.601278e-07, Final residual = 2.601278e-07, No Iterations 0
DICPCG:  Solving for T, Initial residual = 2.601278e-07, Final residual = 2.601278e-07, No Iterations 0
ExecutionTime = 0.33 s  ClockTime = 0 s

Time = 6.25

DICPCG:  Solving for T, Initial residual = 0.0019126944, Final residual = 2.5771867e-07, No Iterations 5
DICPCG:  Solving for T, Initial residual = 2.5763051e-07, Final residual = 2.5763051e-07, No Iterations 0
DICPCG:  Solving for T, Initial residual = 2.5763051e-07, Final residual = 2.5763051e-07, No Iterations 0
ExecutionTime = 0.34 s  ClockTime = 0 s

runTime.value(): 6.25
snapshotsTime: 6.2
Time = 6.3

DICPCG:  Solving for T, Initial residual = 0.0018977833, Final residual = 2.5527064e-07, No Iterations 5
DICPCG:  Solving for T, Initial residual = 2.5518525e-07, Final residual = 2.5518525e-07, No Iterations 0
DICPCG:  Solving for T, Initial residual = 2.5518525e-07, Final residual = 2.5518525e-07, No Iterations 0
ExecutionTime = 0.34 s  ClockTime = 0 s

Time = 6.35

DICPCG:  Solving for T, Initial residual = 0.0018830123, Final residual = 2.5287365e-07, No Iterations 5
DICPCG:  Solving for T, Initial residual = 2.5279092e-07, Final residual = 2.5279092e-07, No Iterations 0
DICPCG:  Solving for T, Initial residual = 2.5279092e-07, Final residual = 2.5279092e-07, No Iterations 0
ExecutionTime = 0.35 s  ClockTime = 0 s

runTime.value(): 6.35
snapshotsTime: 6.3
Time = 6.4

DICPCG:  Solving for T, Initial residual = 0.001868379, Final residual = 2.5052029e-07, No Iterations 5
DICPCG:  Solving for T, Initial residual = 2.5044013e-07, Final residual = 2.5044013e-07, No Iterations 0
DICPCG:  Solving for T, Initial residual = 2.5044013e-07, Final residual = 2.5044013e-07, No Iterations 0
ExecutionTime = 0.35 s  ClockTime = 0 s

Time = 6.45

DICPCG:  Solving for T, Initial residual = 0.0018538811, Final residual = 2.482129e-07, No Iterations 5
DICPCG:  Solving for T, Initial residual = 2.481352e-07, Final residual = 2.481352e-07, No Iterations 0
DICPCG:  Solving for T, Initial residual = 2.481352e-07, Final residual = 2.481352e-07, No Iterations 0
ExecutionTime = 0.35 s  ClockTime = 0 s

runTime.value(): 6.45
snapshotsTime: 6.4
Time = 6.5

DICPCG:  Solving for T, Initial residual = 0.0018395164, Final residual = 2.4594991e-07, No Iterations 5
DICPCG:  Solving for T, Initial residual = 2.4587457e-07, Final residual = 2.4587457e-07, No Iterations 0
DICPCG:  Solving for T, Initial residual = 2.4587457e-07, Final residual = 2.4587457e-07, No Iterations 0
ExecutionTime = 0.35 s  ClockTime = 0 s

Time = 6.55

DICPCG:  Solving for T, Initial residual = 0.0018252827, Final residual = 2.4372699e-07, No Iterations 5
DICPCG:  Solving for T, Initial residual = 2.4365394e-07, Final residual = 2.4365394e-07, No Iterations 0
DICPCG:  Solving for T, Initial residual = 2.4365394e-07, Final residual = 2.4365394e-07, No Iterations 0
ExecutionTime = 0.36 s  ClockTime = 0 s

runTime.value(): 6.55
snapshotsTime: 6.5
Time = 6.6

DICPCG:  Solving for T, Initial residual = 0.0018111779, Final residual = 2.4154354e-07, No Iterations 5
DICPCG:  Solving for T, Initial residual = 2.4147269e-07, Final residual = 2.4147269e-07, No Iterations 0
DICPCG:  Solving for T, Initial residual = 2.4147269e-07, Final residual = 2.4147269e-07, No Iterations 0
ExecutionTime = 0.36 s  ClockTime = 0 s

Time = 6.65

DICPCG:  Solving for T, Initial residual = 0.0017972, Final residual = 2.3939802e-07, No Iterations 5
DICPCG:  Solving for T, Initial residual = 2.3932928e-07, Final residual = 2.3932928e-07, No Iterations 0
DICPCG:  Solving for T, Initial residual = 2.3932928e-07, Final residual = 2.3932928e-07, No Iterations 0
ExecutionTime = 0.36 s  ClockTime = 0 s

runTime.value(): 6.65
snapshotsTime: 6.6
Time = 6.7

DICPCG:  Solving for T, Initial residual = 0.001783347, Final residual = 2.3728822e-07, No Iterations 5
DICPCG:  Solving for T, Initial residual = 2.3722153e-07, Final residual = 2.3722153e-07, No Iterations 0
DICPCG:  Solving for T, Initial residual = 2.3722153e-07, Final residual = 2.3722153e-07, No Iterations 0
ExecutionTime = 0.36 s  ClockTime = 0 s

Time = 6.75

DICPCG:  Solving for T, Initial residual = 0.0017696171, Final residual = 2.3521792e-07, No Iterations 5
DICPCG:  Solving for T, Initial residual = 2.3515318e-07, Final residual = 2.3515318e-07, No Iterations 0
DICPCG:  Solving for T, Initial residual = 2.3515318e-07, Final residual = 2.3515318e-07, No Iterations 0
ExecutionTime = 0.36 s  ClockTime = 0 s

runTime.value(): 6.75
snapshotsTime: 6.7
Time = 6.8

DICPCG:  Solving for T, Initial residual = 0.0017560083, Final residual = 2.3317867e-07, No Iterations 5
DICPCG:  Solving for T, Initial residual = 2.3311583e-07, Final residual = 2.3311583e-07, No Iterations 0
DICPCG:  Solving for T, Initial residual = 2.3311583e-07, Final residual = 2.3311583e-07, No Iterations 0
ExecutionTime = 0.37 s  ClockTime = 0 s

Time = 6.85

DICPCG:  Solving for T, Initial residual = 0.001742519, Final residual = 9.977298e-07, No Iterations 4
DICPCG:  Solving for T, Initial residual = 9.9746641e-07, Final residual = 9.9746641e-07, No Iterations 0
DICPCG:  Solving for T, Initial residual = 9.9746641e-07, Final residual = 9.9746641e-07, No Iterations 0
ExecutionTime = 0.37 s  ClockTime = 0 s

runTime.value(): 6.85
snapshotsTime: 6.8
Time = 6.9

DICPCG:  Solving for T, Initial residual = 0.0017291476, Final residual = 9.8996575e-07, No Iterations 4
DICPCG:  Solving for T, Initial residual = 9.8970978e-07, Final residual = 9.8970978e-07, No Iterations 0
DICPCG:  Solving for T, Initial residual = 9.8970978e-07, Final residual = 9.8970978e-07, No Iterations 0
ExecutionTime = 0.37 s  ClockTime = 0 s

Time = 6.95

DICPCG:  Solving for T, Initial residual = 0.0017158917, Final residual = 9.8215039e-07, No Iterations 4
DICPCG:  Solving for T, Initial residual = 9.8190162e-07, Final residual = 9.8190162e-07, No Iterations 0
DICPCG:  Solving for T, Initial residual = 9.8190162e-07, Final residual = 9.8190162e-07, No Iterations 0
ExecutionTime = 0.37 s  ClockTime = 0 s

runTime.value(): 6.95
snapshotsTime: 6.9
Time = 7

DICPCG:  Solving for T, Initial residual = 0.0017027501, Final residual = 9.7439099e-07, No Iterations 4
DICPCG:  Solving for T, Initial residual = 9.7414918e-07, Final residual = 9.7414918e-07, No Iterations 0
DICPCG:  Solving for T, Initial residual = 9.7414918e-07, Final residual = 9.7414918e-07, No Iterations 0
ExecutionTime = 0.38 s  ClockTime = 0 s

Time = 7.05

DICPCG:  Solving for T, Initial residual = 0.0016897213, Final residual = 9.666968e-07, No Iterations 4
DICPCG:  Solving for T, Initial residual = 9.6646173e-07, Final residual = 9.6646173e-07, No Iterations 0
DICPCG:  Solving for T, Initial residual = 9.6646173e-07, Final residual = 9.6646173e-07, No Iterations 0
ExecutionTime = 0.38 s  ClockTime = 0 s

runTime.value(): 7.05
snapshotsTime: 7
Time = 7.1

DICPCG:  Solving for T, Initial residual = 0.0016768038, Final residual = 9.5908075e-07, No Iterations 4
DICPCG:  Solving for T, Initial residual = 9.588522e-07, Final residual = 9.588522e-07, No Iterations 0
DICPCG:  Solving for T, Initial residual = 9.588522e-07, Final residual = 9.588522e-07, No Iterations 0
ExecutionTime = 0.38 s  ClockTime = 0 s

Time = 7.15

DICPCG:  Solving for T, Initial residual = 0.0016639962, Final residual = 9.515354e-07, No Iterations 4
DICPCG:  Solving for T, Initial residual = 9.5131315e-07, Final residual = 9.5131315e-07, No Iterations 0
DICPCG:  Solving for T, Initial residual = 9.5131315e-07, Final residual = 9.5131315e-07, No Iterations 0
ExecutionTime = 0.38 s  ClockTime = 0 s

runTime.value(): 7.15
snapshotsTime: 7.1
Time = 7.2

DICPCG:  Solving for T, Initial residual = 0.0016512968, Final residual = 9.44068e-07, No Iterations 4
DICPCG:  Solving for T, Initial residual = 9.4385184e-07, Final residual = 9.4385184e-07, No Iterations 0
DICPCG:  Solving for T, Initial residual = 9.4385184e-07, Final residual = 9.4385184e-07, No Iterations 0
ExecutionTime = 0.38 s  ClockTime = 0 s

Time = 7.25

DICPCG:  Solving for T, Initial residual = 0.0016387044, Final residual = 9.36677e-07, No Iterations 4
DICPCG:  Solving for T, Initial residual = 9.3646674e-07, Final residual = 9.3646674e-07, No Iterations 0
DICPCG:  Solving for T, Initial residual = 9.3646674e-07, Final residual = 9.3646674e-07, No Iterations 0
ExecutionTime = 0.39 s  ClockTime = 0 s

runTime.value(): 7.25
snapshotsTime: 7.2
Time = 7.3

DICPCG:  Solving for T, Initial residual = 0.0016262175, Final residual = 9.2936013e-07, No Iterations 4
DICPCG:  Solving for T, Initial residual = 9.2915557e-07, Final residual = 9.2915557e-07, No Iterations 0
DICPCG:  Solving for T, Initial residual = 9.2915557e-07, Final residual = 9.2915557e-07, No Iterations 0
ExecutionTime = 0.39 s  ClockTime = 0 s

Time = 7.35

DICPCG:  Solving for T, Initial residual = 0.0016138348, Final residual = 9.221202e-07, No Iterations 4
DICPCG:  Solving for T, Initial residual = 9.2192116e-07, Final residual = 9.2192116e-07, No Iterations 0
DICPCG:  Solving for T, Initial residual = 9.2192116e-07, Final residual = 9.2192116e-07, No Iterations 0
ExecutionTime = 0.39 s  ClockTime = 0 s

runTime.value(): 7.35
snapshotsTime: 7.3
Time = 7.4

DICPCG:  Solving for T, Initial residual = 0.0016015549, Final residual = 9.1495104e-07, No Iterations 4
DICPCG:  Solving for T, Initial residual = 9.1475733e-07, Final residual = 9.1475733e-07, No Iterations 0
DICPCG:  Solving for T, Initial residual = 9.1475733e-07, Final residual = 9.1475733e-07, No Iterations 0
ExecutionTime = 0.39 s  ClockTime = 0 s

Time = 7.45

DICPCG:  Solving for T, Initial residual = 0.0015893767, Final residual = 9.0785005e-07, No Iterations 4
DICPCG:  Solving for T, Initial residual = 9.0766151e-07, Final residual = 9.0766151e-07, No Iterations 0
DICPCG:  Solving for T, Initial residual = 9.0766151e-07, Final residual = 9.0766151e-07, No Iterations 0
ExecutionTime = 0.39 s  ClockTime = 0 s

runTime.value(): 7.45
snapshotsTime: 7.4
Time = 7.5

DICPCG:  Solving for T, Initial residual = 0.0015772989, Final residual = 9.0082124e-07, No Iterations 4
DICPCG:  Solving for T, Initial residual = 9.006377e-07, Final residual = 9.006377e-07, No Iterations 0
DICPCG:  Solving for T, Initial residual = 9.006377e-07, Final residual = 9.006377e-07, No Iterations 0
ExecutionTime = 0.4 s  ClockTime = 0 s

Time = 7.55

DICPCG:  Solving for T, Initial residual = 0.0015653202, Final residual = 8.9385975e-07, No Iterations 4
DICPCG:  Solving for T, Initial residual = 8.9368105e-07, Final residual = 8.9368105e-07, No Iterations 0
DICPCG:  Solving for T, Initial residual = 8.9368105e-07, Final residual = 8.9368105e-07, No Iterations 0
ExecutionTime = 0.4 s  ClockTime = 0 s

runTime.value(): 7.55
snapshotsTime: 7.5
Time = 7.6

DICPCG:  Solving for T, Initial residual = 0.0015534395, Final residual = 8.8696326e-07, No Iterations 4
DICPCG:  Solving for T, Initial residual = 8.8678925e-07, Final residual = 8.8678925e-07, No Iterations 0
DICPCG:  Solving for T, Initial residual = 8.8678925e-07, Final residual = 8.8678925e-07, No Iterations 0
ExecutionTime = 0.4 s  ClockTime = 0 s

Time = 7.65

DICPCG:  Solving for T, Initial residual = 0.0015416556, Final residual = 8.8012923e-07, No Iterations 4
DICPCG:  Solving for T, Initial residual = 8.7995976e-07, Final residual = 8.7995976e-07, No Iterations 0
DICPCG:  Solving for T, Initial residual = 8.7995976e-07, Final residual = 8.7995976e-07, No Iterations 0
ExecutionTime = 0.4 s  ClockTime = 0 s

runTime.value(): 7.65
snapshotsTime: 7.6
Time = 7.7

DICPCG:  Solving for T, Initial residual = 0.0015299675, Final residual = 8.7335821e-07, No Iterations 4
DICPCG:  Solving for T, Initial residual = 8.7319314e-07, Final residual = 8.7319314e-07, No Iterations 0
DICPCG:  Solving for T, Initial residual = 8.7319314e-07, Final residual = 8.7319314e-07, No Iterations 0
ExecutionTime = 0.41 s  ClockTime = 0 s

Time = 7.75

DICPCG:  Solving for T, Initial residual = 0.001518374, Final residual = 8.6664923e-07, No Iterations 4
DICPCG:  Solving for T, Initial residual = 8.6648843e-07, Final residual = 8.6648843e-07, No Iterations 0
DICPCG:  Solving for T, Initial residual = 8.6648843e-07, Final residual = 8.6648843e-07, No Iterations 0
ExecutionTime = 0.41 s  ClockTime = 0 s

runTime.value(): 7.75
snapshotsTime: 7.7
Time = 7.8

DICPCG:  Solving for T, Initial residual = 0.001506874, Final residual = 8.6000103e-07, No Iterations 4
DICPCG:  Solving for T, Initial residual = 8.5984435e-07, Final residual = 8.5984435e-07, No Iterations 0
DICPCG:  Solving for T, Initial residual = 8.5984435e-07, Final residual = 8.5984435e-07, No Iterations 0
ExecutionTime = 0.41 s  ClockTime = 0 s

Time = 7.85

DICPCG:  Solving for T, Initial residual = 0.0014954666, Final residual = 8.5341079e-07, No Iterations 4
DICPCG:  Solving for T, Initial residual = 8.5325811e-07, Final residual = 8.5325811e-07, No Iterations 0
DICPCG:  Solving for T, Initial residual = 8.5325811e-07, Final residual = 8.5325811e-07, No Iterations 0
ExecutionTime = 0.41 s  ClockTime = 0 s

runTime.value(): 7.85
snapshotsTime: 7.8
Time = 7.9

DICPCG:  Solving for T, Initial residual = 0.0014841506, Final residual = 8.4688029e-07, No Iterations 4
DICPCG:  Solving for T, Initial residual = 8.4673149e-07, Final residual = 8.4673149e-07, No Iterations 0
DICPCG:  Solving for T, Initial residual = 8.4673149e-07, Final residual = 8.4673149e-07, No Iterations 0
ExecutionTime = 0.42 s  ClockTime = 0 s

Time = 7.95

DICPCG:  Solving for T, Initial residual = 0.0014729252, Final residual = 8.4040708e-07, No Iterations 4
DICPCG:  Solving for T, Initial residual = 8.4026204e-07, Final residual = 8.4026204e-07, No Iterations 0
DICPCG:  Solving for T, Initial residual = 8.4026204e-07, Final residual = 8.4026204e-07, No Iterations 0
ExecutionTime = 0.42 s  ClockTime = 0 s

runTime.value(): 7.95
snapshotsTime: 7.9
Time = 8

DICPCG:  Solving for T, Initial residual = 0.0014617892, Final residual = 8.3399023e-07, No Iterations 4
DICPCG:  Solving for T, Initial residual = 8.3384883e-07, Final residual = 8.3384883e-07, No Iterations 0
DICPCG:  Solving for T, Initial residual = 8.3384883e-07, Final residual = 8.3384883e-07, No Iterations 0
ExecutionTime = 0.42 s  ClockTime = 0 s

Time = 8.05

DICPCG:  Solving for T, Initial residual = 0.0014507418, Final residual = 8.2763248e-07, No Iterations 4
DICPCG:  Solving for T, Initial residual = 8.2749461e-07, Final residual = 8.2749461e-07, No Iterations 0
DICPCG:  Solving for T, Initial residual = 8.2749461e-07, Final residual = 8.2749461e-07, No Iterations 0
ExecutionTime = 0.42 s  ClockTime = 0 s

runTime.value(): 8.05
snapshotsTime: 8
Time = 8.1

DICPCG:  Solving for T, Initial residual = 0.001439782, Final residual = 8.2132792e-07, No Iterations 4
DICPCG:  Solving for T, Initial residual = 8.2119347e-07, Final residual = 8.2119347e-07, No Iterations 0
DICPCG:  Solving for T, Initial residual = 8.2119347e-07, Final residual = 8.2119347e-07, No Iterations 0
ExecutionTime = 0.42 s  ClockTime = 0 s

Time = 8.15

DICPCG:  Solving for T, Initial residual = 0.0014289089, Final residual = 8.1507625e-07, No Iterations 4
DICPCG:  Solving for T, Initial residual = 8.1494513e-07, Final residual = 8.1494513e-07, No Iterations 0
DICPCG:  Solving for T, Initial residual = 8.1494513e-07, Final residual = 8.1494513e-07, No Iterations 0
ExecutionTime = 0.43 s  ClockTime = 0 s

runTime.value(): 8.15
snapshotsTime: 8.1
Time = 8.2

DICPCG:  Solving for T, Initial residual = 0.0014181217, Final residual = 8.0887928e-07, No Iterations 4
DICPCG:  Solving for T, Initial residual = 8.0875138e-07, Final residual = 8.0875138e-07, No Iterations 0
DICPCG:  Solving for T, Initial residual = 8.0875138e-07, Final residual = 8.0875138e-07, No Iterations 0
ExecutionTime = 0.43 s  ClockTime = 0 s

Time = 8.25

DICPCG:  Solving for T, Initial residual = 0.0014074193, Final residual = 8.0273677e-07, No Iterations 4
DICPCG:  Solving for T, Initial residual = 8.02612e-07, Final residual = 8.02612e-07, No Iterations 0
DICPCG:  Solving for T, Initial residual = 8.02612e-07, Final residual = 8.02612e-07, No Iterations 0
ExecutionTime = 0.43 s  ClockTime = 0 s

runTime.value(): 8.25
snapshotsTime: 8.2
Time = 8.3

DICPCG:  Solving for T, Initial residual = 0.0013968011, Final residual = 7.966455e-07, No Iterations 4
DICPCG:  Solving for T, Initial residual = 7.9652376e-07, Final residual = 7.9652376e-07, No Iterations 0
DICPCG:  Solving for T, Initial residual = 7.9652376e-07, Final residual = 7.9652376e-07, No Iterations 0
ExecutionTime = 0.43 s  ClockTime = 0 s

Time = 8.35

DICPCG:  Solving for T, Initial residual = 0.0013862154, Final residual = 7.9057592e-07, No Iterations 4
DICPCG:  Solving for T, Initial residual = 7.9048599e-07, Final residual = 7.9048599e-07, No Iterations 0
DICPCG:  Solving for T, Initial residual = 7.9048599e-07, Final residual = 7.9048599e-07, No Iterations 0
ExecutionTime = 0.44 s  ClockTime = 0 s

runTime.value(): 8.35
snapshotsTime: 8.3
Time = 8.4

DICPCG:  Solving for T, Initial residual = 0.0013757094, Final residual = 7.8455402e-07, No Iterations 4
DICPCG:  Solving for T, Initial residual = 7.8448594e-07, Final residual = 7.8448594e-07, No Iterations 0
DICPCG:  Solving for T, Initial residual = 7.8448594e-07, Final residual = 7.8448594e-07, No Iterations 0
ExecutionTime = 0.44 s  ClockTime = 0 s

Time = 8.45

DICPCG:  Solving for T, Initial residual = 0.0013652763, Final residual = 7.7857686e-07, No Iterations 4
DICPCG:  Solving for T, Initial residual = 7.7848593e-07, Final residual = 7.7848593e-07, No Iterations 0
DICPCG:  Solving for T, Initial residual = 7.7848593e-07, Final residual = 7.7848593e-07, No Iterations 0
ExecutionTime = 0.44 s  ClockTime = 0 s

runTime.value(): 8.45
snapshotsTime: 8.4
Time = 8.5

DICPCG:  Solving for T, Initial residual = 0.0013548822, Final residual = 7.7262647e-07, No Iterations 4
DICPCG:  Solving for T, Initial residual = 7.7253795e-07, Final residual = 7.7253795e-07, No Iterations 0
DICPCG:  Solving for T, Initial residual = 7.7253795e-07, Final residual = 7.7253795e-07, No Iterations 0
ExecutionTime = 0.44 s  ClockTime = 0 s

runTime.value(): 8.5
snapshotsTime: 8.5
Time = 8.55

DICPCG:  Solving for T, Initial residual = 0.0013445704, Final residual = 7.6672525e-07, No Iterations 4
DICPCG:  Solving for T, Initial residual = 7.6663905e-07, Final residual = 7.6663905e-07, No Iterations 0
DICPCG:  Solving for T, Initial residual = 7.6663905e-07, Final residual = 7.6663905e-07, No Iterations 0
ExecutionTime = 0.44 s  ClockTime = 0 s

Time = 8.6

DICPCG:  Solving for T, Initial residual = 0.0013343404, Final residual = 7.6087264e-07, No Iterations 4
DICPCG:  Solving for T, Initial residual = 7.607887e-07, Final residual = 7.607887e-07, No Iterations 0
DICPCG:  Solving for T, Initial residual = 7.607887e-07, Final residual = 7.607887e-07, No Iterations 0
ExecutionTime = 0.45 s  ClockTime = 0 s

runTime.value(): 8.6
snapshotsTime: 8.6
Time = 8.65

DICPCG:  Solving for T, Initial residual = 0.0013241912, Final residual = 7.5506741e-07, No Iterations 4
DICPCG:  Solving for T, Initial residual = 7.5498565e-07, Final residual = 7.5498565e-07, No Iterations 0
DICPCG:  Solving for T, Initial residual = 7.5498565e-07, Final residual = 7.5498565e-07, No Iterations 0
ExecutionTime = 0.45 s  ClockTime = 0 s

Time = 8.7

DICPCG:  Solving for T, Initial residual = 0.001314122, Final residual = 7.4930935e-07, No Iterations 4
DICPCG:  Solving for T, Initial residual = 7.4922972e-07, Final residual = 7.4922972e-07, No Iterations 0
DICPCG:  Solving for T, Initial residual = 7.4922972e-07, Final residual = 7.4922972e-07, No Iterations 0
ExecutionTime = 0.45 s  ClockTime = 0 s

runTime.value(): 8.7
snapshotsTime: 8.7
Time = 8.75

DICPCG:  Solving for T, Initial residual = 0.0013041321, Final residual = 7.435977e-07, No Iterations 4
DICPCG:  Solving for T, Initial residual = 7.4352012e-07, Final residual = 7.4352012e-07, No Iterations 0
DICPCG:  Solving for T, Initial residual = 7.4352012e-07, Final residual = 7.4352012e-07, No Iterations 0
ExecutionTime = 0.45 s  ClockTime = 0 s

Time = 8.8

DICPCG:  Solving for T, Initial residual = 0.0012942208, Final residual = 7.3793252e-07, No Iterations 4
DICPCG:  Solving for T, Initial residual = 7.3785693e-07, Final residual = 7.3785693e-07, No Iterations 0
DICPCG:  Solving for T, Initial residual = 7.3785693e-07, Final residual = 7.3785693e-07, No Iterations 0
ExecutionTime = 0.46 s  ClockTime = 0 s

runTime.value(): 8.8
snapshotsTime: 8.8
Time = 8.85

DICPCG:  Solving for T, Initial residual = 0.0012843872, Final residual = 7.3231284e-07, No Iterations 4
DICPCG:  Solving for T, Initial residual = 7.3223918e-07, Final residual = 7.3223918e-07, No Iterations 0
DICPCG:  Solving for T, Initial residual = 7.3223918e-07, Final residual = 7.3223918e-07, No Iterations 0
ExecutionTime = 0.46 s  ClockTime = 0 s

Time = 8.9

DICPCG:  Solving for T, Initial residual = 0.0012746306, Final residual = 7.2673815e-07, No Iterations 4
DICPCG:  Solving for T, Initial residual = 7.2666635e-07, Final residual = 7.2666635e-07, No Iterations 0
DICPCG:  Solving for T, Initial residual = 7.2666635e-07, Final residual = 7.2666635e-07, No Iterations 0
ExecutionTime = 0.46 s  ClockTime = 0 s

runTime.value(): 8.9
snapshotsTime: 8.9
Time = 8.95

DICPCG:  Solving for T, Initial residual = 0.0012649503, Final residual = 7.2121006e-07, No Iterations 4
DICPCG:  Solving for T, Initial residual = 7.2114008e-07, Final residual = 7.2114008e-07, No Iterations 0
DICPCG:  Solving for T, Initial residual = 7.2114008e-07, Final residual = 7.2114008e-07, No Iterations 0
ExecutionTime = 0.46 s  ClockTime = 0 s

Time = 9

DICPCG:  Solving for T, Initial residual = 0.0012553457, Final residual = 7.1572717e-07, No Iterations 4
DICPCG:  Solving for T, Initial residual = 7.1565895e-07, Final residual = 7.1565895e-07, No Iterations 0
DICPCG:  Solving for T, Initial residual = 7.1565895e-07, Final residual = 7.1565895e-07, No Iterations 0
ExecutionTime = 0.46 s  ClockTime = 0 s

runTime.value(): 9
snapshotsTime: 9
Time = 9.05

DICPCG:  Solving for T, Initial residual = 0.0012458159, Final residual = 7.1028786e-07, No Iterations 4
DICPCG:  Solving for T, Initial residual = 7.1022134e-07, Final residual = 7.1022134e-07, No Iterations 0
DICPCG:  Solving for T, Initial residual = 7.1022134e-07, Final residual = 7.1022134e-07, No Iterations 0
ExecutionTime = 0.47 s  ClockTime = 0 s

Time = 9.1

DICPCG:  Solving for T, Initial residual = 0.0012363604, Final residual = 7.0489165e-07, No Iterations 4
DICPCG:  Solving for T, Initial residual = 7.0482679e-07, Final residual = 7.0482679e-07, No Iterations 0
DICPCG:  Solving for T, Initial residual = 7.0482679e-07, Final residual = 7.0482679e-07, No Iterations 0
ExecutionTime = 0.47 s  ClockTime = 0 s

runTime.value(): 9.1
snapshotsTime: 9.1
Time = 9.15

DICPCG:  Solving for T, Initial residual = 0.0012269783, Final residual = 6.9953916e-07, No Iterations 4
DICPCG:  Solving for T, Initial residual = 6.994759e-07, Final residual = 6.994759e-07, No Iterations 0
DICPCG:  Solving for T, Initial residual = 6.994759e-07, Final residual = 6.994759e-07, No Iterations 0
ExecutionTime = 0.47 s  ClockTime = 0 s

Time = 9.2

DICPCG:  Solving for T, Initial residual = 0.0012176692, Final residual = 6.9422887e-07, No Iterations 4
DICPCG:  Solving for T, Initial residual = 6.9416716e-07, Final residual = 6.9416716e-07, No Iterations 0
DICPCG:  Solving for T, Initial residual = 6.9416716e-07, Final residual = 6.9416716e-07, No Iterations 0
ExecutionTime = 0.47 s  ClockTime = 0 s

runTime.value(): 9.2
snapshotsTime: 9.2
Time = 9.25

DICPCG:  Solving for T, Initial residual = 0.0012084322, Final residual = 6.8896007e-07, No Iterations 4
DICPCG:  Solving for T, Initial residual = 6.8889987e-07, Final residual = 6.8889987e-07, No Iterations 0
DICPCG:  Solving for T, Initial residual = 6.8889987e-07, Final residual = 6.8889987e-07, No Iterations 0
ExecutionTime = 0.48 s  ClockTime = 0 s

Time = 9.3

DICPCG:  Solving for T, Initial residual = 0.0011992668, Final residual = 6.8373229e-07, No Iterations 4
DICPCG:  Solving for T, Initial residual = 6.8367356e-07, Final residual = 6.8367356e-07, No Iterations 0
DICPCG:  Solving for T, Initial residual = 6.8367356e-07, Final residual = 6.8367356e-07, No Iterations 0
ExecutionTime = 0.48 s  ClockTime = 0 s

runTime.value(): 9.3
snapshotsTime: 9.3
Time = 9.35

DICPCG:  Solving for T, Initial residual = 0.0011901723, Final residual = 6.7854516e-07, No Iterations 4
DICPCG:  Solving for T, Initial residual = 6.7848785e-07, Final residual = 6.7848785e-07, No Iterations 0
DICPCG:  Solving for T, Initial residual = 6.7848785e-07, Final residual = 6.7848785e-07, No Iterations 0
ExecutionTime = 0.48 s  ClockTime = 0 s

Time = 9.4

DICPCG:  Solving for T, Initial residual = 0.001181148, Final residual = 6.7339915e-07, No Iterations 4
DICPCG:  Solving for T, Initial residual = 6.7334322e-07, Final residual = 6.7334322e-07, No Iterations 0
DICPCG:  Solving for T, Initial residual = 6.7334322e-07, Final residual = 6.7334322e-07, No Iterations 0
ExecutionTime = 0.48 s  ClockTime = 0 s

runTime.value(): 9.4
snapshotsTime: 9.4
Time = 9.45

DICPCG:  Solving for T, Initial residual = 0.0011721935, Final residual = 6.6829366e-07, No Iterations 4
DICPCG:  Solving for T, Initial residual = 6.6823907e-07, Final residual = 6.6823907e-07, No Iterations 0
DICPCG:  Solving for T, Initial residual = 6.6823907e-07, Final residual = 6.6823907e-07, No Iterations 0
ExecutionTime = 0.48 s  ClockTime = 0 s

Time = 9.5

DICPCG:  Solving for T, Initial residual = 0.001163308, Final residual = 6.6322859e-07, No Iterations 4
DICPCG:  Solving for T, Initial residual = 6.6317531e-07, Final residual = 6.6317531e-07, No Iterations 0
DICPCG:  Solving for T, Initial residual = 6.6317531e-07, Final residual = 6.6317531e-07, No Iterations 0
ExecutionTime = 0.49 s  ClockTime = 0 s

runTime.value(): 9.5
snapshotsTime: 9.5
Time = 9.55

DICPCG:  Solving for T, Initial residual = 0.0011544909, Final residual = 6.5820468e-07, No Iterations 4
DICPCG:  Solving for T, Initial residual = 6.5815266e-07, Final residual = 6.5815266e-07, No Iterations 0
DICPCG:  Solving for T, Initial residual = 6.5815266e-07, Final residual = 6.5815266e-07, No Iterations 0
ExecutionTime = 0.49 s  ClockTime = 0 s

Time = 9.6

DICPCG:  Solving for T, Initial residual = 0.0011457417, Final residual = 6.5321976e-07, No Iterations 4
DICPCG:  Solving for T, Initial residual = 6.5316897e-07, Final residual = 6.5316897e-07, No Iterations 0
DICPCG:  Solving for T, Initial residual = 6.5316897e-07, Final residual = 6.5316897e-07, No Iterations 0
ExecutionTime = 0.49 s  ClockTime = 0 s

runTime.value(): 9.6
snapshotsTime: 9.6
Time = 9.65

DICPCG:  Solving for T, Initial residual = 0.0011370598, Final residual = 6.4827338e-07, No Iterations 4
DICPCG:  Solving for T, Initial residual = 6.4822379e-07, Final residual = 6.4822379e-07, No Iterations 0
DICPCG:  Solving for T, Initial residual = 6.4822379e-07, Final residual = 6.4822379e-07, No Iterations 0
ExecutionTime = 0.49 s  ClockTime = 0 s

Time = 9.7

DICPCG:  Solving for T, Initial residual = 0.0011284445, Final residual = 6.4336555e-07, No Iterations 4
DICPCG:  Solving for T, Initial residual = 6.4331711e-07, Final residual = 6.4331711e-07, No Iterations 0
DICPCG:  Solving for T, Initial residual = 6.4331711e-07, Final residual = 6.4331711e-07, No Iterations 0
ExecutionTime = 0.5 s  ClockTime = 0 s

runTime.value(): 9.7
snapshotsTime: 9.7
Time = 9.75

DICPCG:  Solving for T, Initial residual = 0.0011198954, Final residual = 6.3849612e-07, No Iterations 4
DICPCG:  Solving for T, Initial residual = 6.3844881e-07, Final residual = 6.3844881e-07, No Iterations 0
DICPCG:  Solving for T, Initial residual = 6.3844881e-07, Final residual = 6.3844881e-07, No Iterations 0
ExecutionTime = 0.5 s  ClockTime = 0 s

Time = 9.8

DICPCG:  Solving for T, Initial residual = 0.0011114118, Final residual = 6.3366435e-07, No Iterations 4
DICPCG:  Solving for T, Initial residual = 6.3361813e-07, Final residual = 6.3361813e-07, No Iterations 0
DICPCG:  Solving for T, Initial residual = 6.3361813e-07, Final residual = 6.3361813e-07, No Iterations 0
ExecutionTime = 0.5 s  ClockTime = 0 s

runTime.value(): 9.8
snapshotsTime: 9.8
Time = 9.85

DICPCG:  Solving for T, Initial residual = 0.0011029932, Final residual = 6.2886983e-07, No Iterations 4
DICPCG:  Solving for T, Initial residual = 6.2882468e-07, Final residual = 6.2882468e-07, No Iterations 0
DICPCG:  Solving for T, Initial residual = 6.2882468e-07, Final residual = 6.2882468e-07, No Iterations 0
ExecutionTime = 0.5 s  ClockTime = 0 s

Time = 9.9

DICPCG:  Solving for T, Initial residual = 0.0010946391, Final residual = 6.2411192e-07, No Iterations 4
DICPCG:  Solving for T, Initial residual = 6.240678e-07, Final residual = 6.240678e-07, No Iterations 0
DICPCG:  Solving for T, Initial residual = 6.240678e-07, Final residual = 6.240678e-07, No Iterations 0
ExecutionTime = 0.51 s  ClockTime = 0 s

runTime.value(): 9.9
snapshotsTime: 9.9
Time = 9.95

DICPCG:  Solving for T, Initial residual = 0.0010863488, Final residual = 6.1939048e-07, No Iterations 4
DICPCG:  Solving for T, Initial residual = 6.1934736e-07, Final residual = 6.1934736e-07, No Iterations 0
DICPCG:  Solving for T, Initial residual = 6.1934736e-07, Final residual = 6.1934736e-07, No Iterations 0
ExecutionTime = 0.51 s  ClockTime = 0 s

Time = 10

DICPCG:  Solving for T, Initial residual = 0.0010781219, Final residual = 6.1470511e-07, No Iterations 4
DICPCG:  Solving for T, Initial residual = 6.1466298e-07, Final residual = 6.1466298e-07, No Iterations 0
DICPCG:  Solving for T, Initial residual = 6.1466298e-07, Final residual = 6.1466298e-07, No Iterations 0
ExecutionTime = 0.54 s  ClockTime = 0 s

runTime.value(): 10
snapshotsTime: 10
Time = 10.05

DICPCG:  Solving for T, Initial residual = 0.0010699579, Final residual = 6.1005544e-07, No Iterations 4
DICPCG:  Solving for T, Initial residual = 6.1001425e-07, Final residual = 6.1001425e-07, No Iterations 0
DICPCG:  Solving for T, Initial residual = 6.1001425e-07, Final residual = 6.1001425e-07, No Iterations 0
ExecutionTime = 0.55 s  ClockTime = 0 s

Time = 10.1

DICPCG:  Solving for T, Initial residual = 0.0010618562, Final residual = 6.0544149e-07, No Iterations 4
[...]
snapshotsTime: 17.5
Time = 17.55

DICPCG:  Solving for T, Initial residual = 0.0003402559, Final residual = 1.9416374e-07, No Iterations 4
DICPCG:  Solving for T, Initial residual = 1.9416232e-07, Final residual = 1.9416232e-07, No Iterations 0
DICPCG:  Solving for T, Initial residual = 1.9416232e-07, Final residual = 1.9416232e-07, No Iterations 0
ExecutionTime = 0.89 s  ClockTime = 1 s

Time = 17.6

DICPCG:  Solving for T, Initial residual = 0.00033766011, Final residual = 1.9268269e-07, No Iterations 4
DICPCG:  Solving for T, Initial residual = 1.9268129e-07, Final residual = 1.9268129e-07, No Iterations 0
DICPCG:  Solving for T, Initial residual = 1.9268129e-07, Final residual = 1.9268129e-07, No Iterations 0
ExecutionTime = 0.89 s  ClockTime = 1 s

runTime.value(): 17.6
snapshotsTime: 17.6
Time = 17.65

DICPCG:  Solving for T, Initial residual = 0.00033508408, Final residual = 1.9121291e-07, No Iterations 4
DICPCG:  Solving for T, Initial residual = 1.9121153e-07, Final residual = 1.9121153e-07, No Iterations 0
DICPCG:  Solving for T, Initial residual = 1.9121153e-07, Final residual = 1.9121153e-07, No Iterations 0
ExecutionTime = 0.89 s  ClockTime = 1 s

Time = 17.7

DICPCG:  Solving for T, Initial residual = 0.00033252766, Final residual = 1.8975431e-07, No Iterations 4
DICPCG:  Solving for T, Initial residual = 1.8975296e-07, Final residual = 1.8975296e-07, No Iterations 0
DICPCG:  Solving for T, Initial residual = 1.8975296e-07, Final residual = 1.8975296e-07, No Iterations 0
ExecutionTime = 0.9 s  ClockTime = 1 s

runTime.value(): 17.7
snapshotsTime: 17.7
Time = 17.75

DICPCG:  Solving for T, Initial residual = 0.00032999069, Final residual = 1.8830681e-07, No Iterations 4
DICPCG:  Solving for T, Initial residual = 1.8830548e-07, Final residual = 1.8830548e-07, No Iterations 0
DICPCG:  Solving for T, Initial residual = 1.8830548e-07, Final residual = 1.8830548e-07, No Iterations 0
ExecutionTime = 0.9 s  ClockTime = 1 s

Time = 17.8

DICPCG:  Solving for T, Initial residual = 0.00032747304, Final residual = 1.8687032e-07, No Iterations 4
DICPCG:  Solving for T, Initial residual = 1.8686901e-07, Final residual = 1.8686901e-07, No Iterations 0
DICPCG:  Solving for T, Initial residual = 1.8686901e-07, Final residual = 1.8686901e-07, No Iterations 0
ExecutionTime = 0.9 s  ClockTime = 1 s

runTime.value(): 17.8
snapshotsTime: 17.8
Time = 17.85

DICPCG:  Solving for T, Initial residual = 0.00032497456, Final residual = 1.8544476e-07, No Iterations 4
DICPCG:  Solving for T, Initial residual = 1.8544347e-07, Final residual = 1.8544347e-07, No Iterations 0
DICPCG:  Solving for T, Initial residual = 1.8544347e-07, Final residual = 1.8544347e-07, No Iterations 0
ExecutionTime = 0.9 s  ClockTime = 1 s

Time = 17.9

DICPCG:  Solving for T, Initial residual = 0.0003224951, Final residual = 1.8403006e-07, No Iterations 4
DICPCG:  Solving for T, Initial residual = 1.8402879e-07, Final residual = 1.8402879e-07, No Iterations 0
DICPCG:  Solving for T, Initial residual = 1.8402879e-07, Final residual = 1.8402879e-07, No Iterations 0
ExecutionTime = 0.9 s  ClockTime = 1 s

runTime.value(): 17.9
snapshotsTime: 17.9
Time = 17.95

DICPCG:  Solving for T, Initial residual = 0.00032003451, Final residual = 1.8262611e-07, No Iterations 4
DICPCG:  Solving for T, Initial residual = 1.8262486e-07, Final residual = 1.8262486e-07, No Iterations 0
DICPCG:  Solving for T, Initial residual = 1.8262486e-07, Final residual = 1.8262486e-07, No Iterations 0
ExecutionTime = 0.91 s  ClockTime = 1 s

Time = 18

DICPCG:  Solving for T, Initial residual = 0.00031759265, Final residual = 1.8123285e-07, No Iterations 4
DICPCG:  Solving for T, Initial residual = 1.8123162e-07, Final residual = 1.8123162e-07, No Iterations 0
DICPCG:  Solving for T, Initial residual = 1.8123162e-07, Final residual = 1.8123162e-07, No Iterations 0
ExecutionTime = 0.91 s  ClockTime = 1 s

runTime.value(): 18
snapshotsTime: 18
Time = 18.05

DICPCG:  Solving for T, Initial residual = 0.00031516939, Final residual = 1.798502e-07, No Iterations 4
DICPCG:  Solving for T, Initial residual = 1.7984899e-07, Final residual = 1.7984899e-07, No Iterations 0
DICPCG:  Solving for T, Initial residual = 1.7984899e-07, Final residual = 1.7984899e-07, No Iterations 0
ExecutionTime = 0.91 s  ClockTime = 1 s

Time = 18.1

DICPCG:  Solving for T, Initial residual = 0.00031276458, Final residual = 1.7847806e-07, No Iterations 4
DICPCG:  Solving for T, Initial residual = 1.7847687e-07, Final residual = 1.7847687e-07, No Iterations 0
DICPCG:  Solving for T, Initial residual = 1.7847687e-07, Final residual = 1.7847687e-07, No Iterations 0
ExecutionTime = 0.91 s  ClockTime = 1 s

runTime.value(): 18.1
snapshotsTime: 18.1
Time = 18.15

DICPCG:  Solving for T, Initial residual = 0.00031037807, Final residual = 1.7711637e-07, No Iterations 4
DICPCG:  Solving for T, Initial residual = 1.7711519e-07, Final residual = 1.7711519e-07, No Iterations 0
DICPCG:  Solving for T, Initial residual = 1.7711519e-07, Final residual = 1.7711519e-07, No Iterations 0
ExecutionTime = 0.91 s  ClockTime = 1 s

Time = 18.2

DICPCG:  Solving for T, Initial residual = 0.00030800974, Final residual = 1.7576504e-07, No Iterations 4
DICPCG:  Solving for T, Initial residual = 1.7576388e-07, Final residual = 1.7576388e-07, No Iterations 0
DICPCG:  Solving for T, Initial residual = 1.7576388e-07, Final residual = 1.7576388e-07, No Iterations 0
ExecutionTime = 0.92 s  ClockTime = 1 s

runTime.value(): 18.2
snapshotsTime: 18.2
Time = 18.25

DICPCG:  Solving for T, Initial residual = 0.00030565944, Final residual = 1.7442399e-07, No Iterations 4
DICPCG:  Solving for T, Initial residual = 1.7442286e-07, Final residual = 1.7442286e-07, No Iterations 0
DICPCG:  Solving for T, Initial residual = 1.7442286e-07, Final residual = 1.7442286e-07, No Iterations 0
ExecutionTime = 0.92 s  ClockTime = 1 s

Time = 18.3

DICPCG:  Solving for T, Initial residual = 0.00030332704, Final residual = 1.7309315e-07, No Iterations 4
DICPCG:  Solving for T, Initial residual = 1.7309204e-07, Final residual = 1.7309204e-07, No Iterations 0
DICPCG:  Solving for T, Initial residual = 1.7309204e-07, Final residual = 1.7309204e-07, No Iterations 0
ExecutionTime = 0.92 s  ClockTime = 1 s

runTime.value(): 18.3
snapshotsTime: 18.3
Time = 18.35

DICPCG:  Solving for T, Initial residual = 0.0003010124, Final residual = 1.7177245e-07, No Iterations 4
DICPCG:  Solving for T, Initial residual = 1.7177135e-07, Final residual = 1.7177135e-07, No Iterations 0
DICPCG:  Solving for T, Initial residual = 1.7177135e-07, Final residual = 1.7177135e-07, No Iterations 0
ExecutionTime = 0.92 s  ClockTime = 1 s

Time = 18.4

DICPCG:  Solving for T, Initial residual = 0.00029871538, Final residual = 1.7046179e-07, No Iterations 4
DICPCG:  Solving for T, Initial residual = 1.7046071e-07, Final residual = 1.7046071e-07, No Iterations 0
DICPCG:  Solving for T, Initial residual = 1.7046071e-07, Final residual = 1.7046071e-07, No Iterations 0
ExecutionTime = 0.92 s  ClockTime = 1 s

runTime.value(): 18.4
snapshotsTime: 18.4
Time = 18.45

DICPCG:  Solving for T, Initial residual = 0.00029643585, Final residual = 1.6916111e-07, No Iterations 4
DICPCG:  Solving for T, Initial residual = 1.6916005e-07, Final residual = 1.6916005e-07, No Iterations 0
DICPCG:  Solving for T, Initial residual = 1.6916005e-07, Final residual = 1.6916005e-07, No Iterations 0
ExecutionTime = 0.93 s  ClockTime = 1 s

Time = 18.5

DICPCG:  Solving for T, Initial residual = 0.00029417369, Final residual = 1.6787034e-07, No Iterations 4
DICPCG:  Solving for T, Initial residual = 1.6786929e-07, Final residual = 1.6786929e-07, No Iterations 0
DICPCG:  Solving for T, Initial residual = 1.6786929e-07, Final residual = 1.6786929e-07, No Iterations 0
ExecutionTime = 0.93 s  ClockTime = 1 s

runTime.value(): 18.5
snapshotsTime: 18.5
Time = 18.55

DICPCG:  Solving for T, Initial residual = 0.00029192875, Final residual = 1.6658938e-07, No Iterations 4
DICPCG:  Solving for T, Initial residual = 1.6658835e-07, Final residual = 1.6658835e-07, No Iterations 0
DICPCG:  Solving for T, Initial residual = 1.6658835e-07, Final residual = 1.6658835e-07, No Iterations 0
ExecutionTime = 0.93 s  ClockTime = 1 s

Time = 18.6

DICPCG:  Solving for T, Initial residual = 0.00028970091, Final residual = 1.6531819e-07, No Iterations 4
DICPCG:  Solving for T, Initial residual = 1.6531717e-07, Final residual = 1.6531717e-07, No Iterations 0
DICPCG:  Solving for T, Initial residual = 1.6531717e-07, Final residual = 1.6531717e-07, No Iterations 0
ExecutionTime = 0.93 s  ClockTime = 1 s

runTime.value(): 18.6
snapshotsTime: 18.6
Time = 18.65

DICPCG:  Solving for T, Initial residual = 0.00028749004, Final residual = 1.6405666e-07, No Iterations 4
DICPCG:  Solving for T, Initial residual = 1.6405566e-07, Final residual = 1.6405566e-07, No Iterations 0
DICPCG:  Solving for T, Initial residual = 1.6405566e-07, Final residual = 1.6405566e-07, No Iterations 0
ExecutionTime = 0.93 s  ClockTime = 1 s

Time = 18.7

DICPCG:  Solving for T, Initial residual = 0.00028529601, Final residual = 1.6280475e-07, No Iterations 4
DICPCG:  Solving for T, Initial residual = 1.6280376e-07, Final residual = 1.6280376e-07, No Iterations 0
DICPCG:  Solving for T, Initial residual = 1.6280376e-07, Final residual = 1.6280376e-07, No Iterations 0
ExecutionTime = 0.94 s  ClockTime = 1 s

runTime.value(): 18.7
snapshotsTime: 18.7
Time = 18.75

DICPCG:  Solving for T, Initial residual = 0.00028311868, Final residual = 1.6156236e-07, No Iterations 4
DICPCG:  Solving for T, Initial residual = 1.6156139e-07, Final residual = 1.6156139e-07, No Iterations 0
DICPCG:  Solving for T, Initial residual = 1.6156139e-07, Final residual = 1.6156139e-07, No Iterations 0
ExecutionTime = 0.94 s  ClockTime = 1 s

Time = 18.8

DICPCG:  Solving for T, Initial residual = 0.00028095794, Final residual = 1.6032944e-07, No Iterations 4
DICPCG:  Solving for T, Initial residual = 1.6032848e-07, Final residual = 1.6032848e-07, No Iterations 0
DICPCG:  Solving for T, Initial residual = 1.6032848e-07, Final residual = 1.6032848e-07, No Iterations 0
ExecutionTime = 0.94 s  ClockTime = 1 s

runTime.value(): 18.8
snapshotsTime: 18.8
Time = 18.85

DICPCG:  Solving for T, Initial residual = 0.00027881366, Final residual = 1.591059e-07, No Iterations 4
DICPCG:  Solving for T, Initial residual = 1.5910496e-07, Final residual = 1.5910496e-07, No Iterations 0
DICPCG:  Solving for T, Initial residual = 1.5910496e-07, Final residual = 1.5910496e-07, No Iterations 0
ExecutionTime = 0.94 s  ClockTime = 1 s

Time = 18.9

DICPCG:  Solving for T, Initial residual = 0.00027668572, Final residual = 1.5789168e-07, No Iterations 4
DICPCG:  Solving for T, Initial residual = 1.5789076e-07, Final residual = 1.5789076e-07, No Iterations 0
DICPCG:  Solving for T, Initial residual = 1.5789076e-07, Final residual = 1.5789076e-07, No Iterations 0
ExecutionTime = 0.94 s  ClockTime = 1 s

runTime.value(): 18.9
snapshotsTime: 18.9
Time = 18.95

DICPCG:  Solving for T, Initial residual = 0.00027457398, Final residual = 1.5668671e-07, No Iterations 4
DICPCG:  Solving for T, Initial residual = 1.566858e-07, Final residual = 1.566858e-07, No Iterations 0
DICPCG:  Solving for T, Initial residual = 1.566858e-07, Final residual = 1.566858e-07, No Iterations 0
ExecutionTime = 0.95 s  ClockTime = 1 s

Time = 19

DICPCG:  Solving for T, Initial residual = 0.00027247832, Final residual = 1.5549091e-07, No Iterations 4
DICPCG:  Solving for T, Initial residual = 1.5549001e-07, Final residual = 1.5549001e-07, No Iterations 0
DICPCG:  Solving for T, Initial residual = 1.5549001e-07, Final residual = 1.5549001e-07, No Iterations 0
ExecutionTime = 0.95 s  ClockTime = 1 s

runTime.value(): 19
snapshotsTime: 19
Time = 19.05

DICPCG:  Solving for T, Initial residual = 0.00027039825, Final residual = 1.5430399e-07, No Iterations 4
DICPCG:  Solving for T, Initial residual = 1.5430334e-07, Final residual = 1.5430334e-07, No Iterations 0
DICPCG:  Solving for T, Initial residual = 1.5430334e-07, Final residual = 1.5430334e-07, No Iterations 0
ExecutionTime = 0.95 s  ClockTime = 1 s

Time = 19.1

DICPCG:  Solving for T, Initial residual = 0.00026833235, Final residual = 1.5312517e-07, No Iterations 4
DICPCG:  Solving for T, Initial residual = 1.531257e-07, Final residual = 1.531257e-07, No Iterations 0
DICPCG:  Solving for T, Initial residual = 1.531257e-07, Final residual = 1.531257e-07, No Iterations 0
ExecutionTime = 0.95 s  ClockTime = 1 s

runTime.value(): 19.1
snapshotsTime: 19.1
Time = 19.15

DICPCG:  Solving for T, Initial residual = 0.00026628223, Final residual = 1.5195535e-07, No Iterations 4
DICPCG:  Solving for T, Initial residual = 1.5195598e-07, Final residual = 1.5195598e-07, No Iterations 0
DICPCG:  Solving for T, Initial residual = 1.5195598e-07, Final residual = 1.5195598e-07, No Iterations 0
ExecutionTime = 0.96 s  ClockTime = 1 s

Time = 19.2

DICPCG:  Solving for T, Initial residual = 0.00026424685, Final residual = 1.5079393e-07, No Iterations 4
DICPCG:  Solving for T, Initial residual = 1.5079391e-07, Final residual = 1.5079391e-07, No Iterations 0
DICPCG:  Solving for T, Initial residual = 1.5079391e-07, Final residual = 1.5079391e-07, No Iterations 0
ExecutionTime = 0.96 s  ClockTime = 1 s

runTime.value(): 19.2
snapshotsTime: 19.2
Time = 19.25

DICPCG:  Solving for T, Initial residual = 0.00026222591, Final residual = 1.4964075e-07, No Iterations 4
DICPCG:  Solving for T, Initial residual = 1.4964074e-07, Final residual = 1.4964074e-07, No Iterations 0
DICPCG:  Solving for T, Initial residual = 1.4964074e-07, Final residual = 1.4964074e-07, No Iterations 0
ExecutionTime = 0.96 s  ClockTime = 1 s

Time = 19.3

DICPCG:  Solving for T, Initial residual = 0.00026022044, Final residual = 1.4849639e-07, No Iterations 4
DICPCG:  Solving for T, Initial residual = 1.4849638e-07, Final residual = 1.4849638e-07, No Iterations 0
DICPCG:  Solving for T, Initial residual = 1.4849638e-07, Final residual = 1.4849638e-07, No Iterations 0
ExecutionTime = 0.96 s  ClockTime = 1 s

runTime.value(): 19.3
snapshotsTime: 19.3
Time = 19.35

DICPCG:  Solving for T, Initial residual = 0.0002582303, Final residual = 1.4736078e-07, No Iterations 4
DICPCG:  Solving for T, Initial residual = 1.4736077e-07, Final residual = 1.4736077e-07, No Iterations 0
DICPCG:  Solving for T, Initial residual = 1.4736077e-07, Final residual = 1.4736077e-07, No Iterations 0
ExecutionTime = 0.96 s  ClockTime = 1 s

Time = 19.4

DICPCG:  Solving for T, Initial residual = 0.00025625538, Final residual = 1.4623386e-07, No Iterations 4
DICPCG:  Solving for T, Initial residual = 1.4623385e-07, Final residual = 1.4623385e-07, No Iterations 0
DICPCG:  Solving for T, Initial residual = 1.4623385e-07, Final residual = 1.4623385e-07, No Iterations 0
ExecutionTime = 0.97 s  ClockTime = 1 s

runTime.value(): 19.4
snapshotsTime: 19.4
Time = 19.45

DICPCG:  Solving for T, Initial residual = 0.00025429557, Final residual = 1.4511555e-07, No Iterations 4
DICPCG:  Solving for T, Initial residual = 1.4511554e-07, Final residual = 1.4511554e-07, No Iterations 0
DICPCG:  Solving for T, Initial residual = 1.4511554e-07, Final residual = 1.4511554e-07, No Iterations 0
ExecutionTime = 0.97 s  ClockTime = 1 s

Time = 19.5

DICPCG:  Solving for T, Initial residual = 0.00025235075, Final residual = 1.4400579e-07, No Iterations 4
DICPCG:  Solving for T, Initial residual = 1.4400578e-07, Final residual = 1.4400578e-07, No Iterations 0
DICPCG:  Solving for T, Initial residual = 1.4400578e-07, Final residual = 1.4400578e-07, No Iterations 0
ExecutionTime = 0.97 s  ClockTime = 1 s

runTime.value(): 19.5
snapshotsTime: 19.5
Time = 19.55

DICPCG:  Solving for T, Initial residual = 0.0002504208, Final residual = 1.4290452e-07, No Iterations 4
DICPCG:  Solving for T, Initial residual = 1.4290451e-07, Final residual = 1.4290451e-07, No Iterations 0
DICPCG:  Solving for T, Initial residual = 1.4290451e-07, Final residual = 1.4290451e-07, No Iterations 0
ExecutionTime = 0.97 s  ClockTime = 1 s

Time = 19.6

DICPCG:  Solving for T, Initial residual = 0.00024850562, Final residual = 1.4181167e-07, No Iterations 4
DICPCG:  Solving for T, Initial residual = 1.4181166e-07, Final residual = 1.4181166e-07, No Iterations 0
DICPCG:  Solving for T, Initial residual = 1.4181166e-07, Final residual = 1.4181166e-07, No Iterations 0
ExecutionTime = 0.97 s  ClockTime = 1 s

runTime.value(): 19.6
snapshotsTime: 19.6
Time = 19.65

DICPCG:  Solving for T, Initial residual = 0.00024660508, Final residual = 1.4072718e-07, No Iterations 4
DICPCG:  Solving for T, Initial residual = 1.4072717e-07, Final residual = 1.4072717e-07, No Iterations 0
DICPCG:  Solving for T, Initial residual = 1.4072717e-07, Final residual = 1.4072717e-07, No Iterations 0
ExecutionTime = 0.97 s  ClockTime = 1 s

Time = 19.7

DICPCG:  Solving for T, Initial residual = 0.00024471908, Final residual = 1.3965098e-07, No Iterations 4
DICPCG:  Solving for T, Initial residual = 1.3965097e-07, Final residual = 1.3965097e-07, No Iterations 0
DICPCG:  Solving for T, Initial residual = 1.3965097e-07, Final residual = 1.3965097e-07, No Iterations 0
ExecutionTime = 0.97 s  ClockTime = 1 s

runTime.value(): 19.7
snapshotsTime: 19.7
Time = 19.75

DICPCG:  Solving for T, Initial residual = 0.0002428475, Final residual = 1.3858301e-07, No Iterations 4
DICPCG:  Solving for T, Initial residual = 1.38583e-07, Final residual = 1.38583e-07, No Iterations 0
DICPCG:  Solving for T, Initial residual = 1.38583e-07, Final residual = 1.38583e-07, No Iterations 0
ExecutionTime = 0.98 s  ClockTime = 1 s

Time = 19.8

DICPCG:  Solving for T, Initial residual = 0.00024099024, Final residual = 1.375232e-07, No Iterations 4
DICPCG:  Solving for T, Initial residual = 1.3752319e-07, Final residual = 1.3752319e-07, No Iterations 0
DICPCG:  Solving for T, Initial residual = 1.3752319e-07, Final residual = 1.3752319e-07, No Iterations 0
ExecutionTime = 0.98 s  ClockTime = 1 s

runTime.value(): 19.8
snapshotsTime: 19.8
Time = 19.85

DICPCG:  Solving for T, Initial residual = 0.00023914718, Final residual = 1.364715e-07, No Iterations 4
DICPCG:  Solving for T, Initial residual = 1.3647149e-07, Final residual = 1.3647149e-07, No Iterations 0
DICPCG:  Solving for T, Initial residual = 1.3647149e-07, Final residual = 1.3647149e-07, No Iterations 0
ExecutionTime = 0.98 s  ClockTime = 1 s

Time = 19.9

DICPCG:  Solving for T, Initial residual = 0.00023731822, Final residual = 1.3542784e-07, No Iterations 4
DICPCG:  Solving for T, Initial residual = 1.3542784e-07, Final residual = 1.3542784e-07, No Iterations 0
DICPCG:  Solving for T, Initial residual = 1.3542784e-07, Final residual = 1.3542784e-07, No Iterations 0
ExecutionTime = 0.98 s  ClockTime = 1 s

runTime.value(): 19.9
snapshotsTime: 19.9
Time = 19.95

DICPCG:  Solving for T, Initial residual = 0.00023550325, Final residual = 1.3439217e-07, No Iterations 4
DICPCG:  Solving for T, Initial residual = 1.3439216e-07, Final residual = 1.3439216e-07, No Iterations 0
DICPCG:  Solving for T, Initial residual = 1.3439216e-07, Final residual = 1.3439216e-07, No Iterations 0
ExecutionTime = 0.98 s  ClockTime = 1 s

Time = 20

DICPCG:  Solving for T, Initial residual = 0.00023370216, Final residual = 9.9606311e-07, No Iterations 3
DICPCG:  Solving for T, Initial residual = 9.9606305e-07, Final residual = 9.9606305e-07, No Iterations 0
DICPCG:  Solving for T, Initial residual = 9.9606305e-07, Final residual = 9.9606305e-07, No Iterations 0
ExecutionTime = 1.01 s  ClockTime = 1 s

runTime.value(): 20
snapshotsTime: 20
End

snapshots number is: 201
snapshotsTime is: 20.1
read modes field: "Tmode0"
read modes field: "Tmode1"
read modes field: "Tmode2"
read modes field: "Tmode3"
write svd data

write Snapshot Matrix: (4000 201)
write spatial mode Matrix: (4000 201)
write temporal coefficient Matrix: (201 201)
write eigenvalue: 201
laplacian of modes Matrix: (4000 4)
