/*---------------------------------------------------------------------------*\
| =========                 |                                                 |
| \\      /  F ield         | OpenFOAM: The Open Source CFD Toolbox           |
|  \\    /   O peration     | Version:  v2106                                 |
|   \\  /    A nd           | Website:  www.openfoam.com                      |
|    \\/     M anipulation  |                                                 |
\*---------------------------------------------------------------------------*/
Build  : _c15bfde3cb-20210624 OPENFOAM=2106
Arch   : "LSB;label=32;scalar=64"
Exec   : laplacianFoamDiscGalk
Date   : Nov 05 2022
Time   : 19:04:53
Host   : Sh-Ruan-matebook
PID    : 13313
I/O    : uncollated
Case   : /home/shenhui_ruan/gitFolder/RshOpenFOAMSourceCode/laplacianFoamROM_Discontinuity_Galerkin/Blocks
nProcs : 1
trapFpe: Floating point exception trapping enabled (FOAM_SIGFPE).
fileModificationChecking : Monitoring run-time modified files using timeStampMaster (fileModificationSkew 5, maxFileModificationPolls 20)
allowSystemOperations : Allowing user-supplied system call operations

// * * * * * * * * * * * * * * * * * * * * * * * * * * * * * * * * * * * * * //
Create time

Create mesh for time = 0


SIMPLE: no convergence criteria found. Calculations will run for 50 steps.

Reading field T

Reading diffusivity DT

No finite volume options present

Calculating temperature distribution

Time = 1

DICPCG:  Solving for T, Initial residual = 1, Final residual = 7.3835187e-07, No Iterations 67
ExecutionTime = 0.05 s  ClockTime = 0 s

Time = 2

DICPCG:  Solving for T, Initial residual = 0.015245992, Final residual = 4.5589731e-07, No Iterations 63
ExecutionTime = 0.06 s  ClockTime = 0 s

Time = 3

DICPCG:  Solving for T, Initial residual = 0.007384235, Final residual = 6.2528582e-07, No Iterations 59
ExecutionTime = 0.07 s  ClockTime = 0 s

Time = 4

DICPCG:  Solving for T, Initial residual = 0.0052433286, Final residual = 6.5568087e-07, No Iterations 58
ExecutionTime = 0.08 s  ClockTime = 0 s

Time = 5

DICPCG:  Solving for T, Initial residual = 0.0040364277, Final residual = 8.8134151e-07, No Iterations 53
ExecutionTime = 0.09 s  ClockTime = 0 s

Time = 6

DICPCG:  Solving for T, Initial residual = 0.0031893514, Final residual = 6.6001293e-07, No Iterations 49
ExecutionTime = 0.1 s  ClockTime = 0 s

Time = 7

DICPCG:  Solving for T, Initial residual = 0.00254386, Final residual = 7.7314714e-07, No Iterations 44
ExecutionTime = 0.11 s  ClockTime = 0 s

Time = 8

DICPCG:  Solving for T, Initial residual = 0.0020362462, Final residual = 7.8732322e-07, No Iterations 38
ExecutionTime = 0.12 s  ClockTime = 0 s

Time = 9

DICPCG:  Solving for T, Initial residual = 0.0016320544, Final residual = 4.8240228e-07, No Iterations 38
ExecutionTime = 0.13 s  ClockTime = 0 s

Time = 10

DICPCG:  Solving for T, Initial residual = 0.0013087971, Final residual = 8.7271652e-07, No Iterations 30
ExecutionTime = 0.19 s  ClockTime = 0 s

Time = 11

DICPCG:  Solving for T, Initial residual = 0.0010498085, Final residual = 9.7118038e-07, No Iterations 28
ExecutionTime = 0.21 s  ClockTime = 0 s

Time = 12

DICPCG:  Solving for T, Initial residual = 0.00084203204, Final residual = 7.9727598e-07, No Iterations 28
ExecutionTime = 0.22 s  ClockTime = 0 s

Time = 13

DICPCG:  Solving for T, Initial residual = 0.00067539274, Final residual = 7.6205299e-07, No Iterations 28
ExecutionTime = 0.22 s  ClockTime = 0 s

Time = 14

DICPCG:  Solving for T, Initial residual = 0.00054172469, Final residual = 9.7347118e-07, No Iterations 27
ExecutionTime = 0.23 s  ClockTime = 0 s

Time = 15

DICPCG:  Solving for T, Initial residual = 0.00043449834, Final residual = 8.8657613e-07, No Iterations 26
ExecutionTime = 0.24 s  ClockTime = 0 s

Time = 16

DICPCG:  Solving for T, Initial residual = 0.00034851569, Final residual = 9.741923e-07, No Iterations 18
ExecutionTime = 0.24 s  ClockTime = 0 s

Time = 17

DICPCG:  Solving for T, Initial residual = 0.00027962058, Final residual = 6.8149874e-07, No Iterations 18
ExecutionTime = 0.25 s  ClockTime = 0 s

Time = 18

DICPCG:  Solving for T, Initial residual = 0.00022424164, Final residual = 8.9252883e-07, No Iterations 17
ExecutionTime = 0.25 s  ClockTime = 0 s

Time = 19

DICPCG:  Solving for T, Initial residual = 0.00017992608, Final residual = 6.8368952e-07, No Iterations 17
ExecutionTime = 0.26 s  ClockTime = 0 s

Time = 20

DICPCG:  Solving for T, Initial residual = 0.00014428776, Final residual = 5.4937915e-07, No Iterations 17
ExecutionTime = 0.32 s  ClockTime = 0 s

Time = 21

DICPCG:  Solving for T, Initial residual = 0.00011576015, Final residual = 8.3263997e-07, No Iterations 16
ExecutionTime = 0.34 s  ClockTime = 0 s

Time = 22

DICPCG:  Solving for T, Initial residual = 9.2835479e-05, Final residual = 9.1727524e-07, No Iterations 15
ExecutionTime = 0.34 s  ClockTime = 0 s

Time = 23

DICPCG:  Solving for T, Initial residual = 7.446205e-05, Final residual = 5.8613725e-07, No Iterations 15
ExecutionTime = 0.35 s  ClockTime = 0 s

Time = 24

DICPCG:  Solving for T, Initial residual = 5.9703304e-05, Final residual = 5.2393067e-07, No Iterations 15
ExecutionTime = 0.36 s  ClockTime = 0 s

Time = 25

DICPCG:  Solving for T, Initial residual = 4.7911958e-05, Final residual = 8.241614e-07, No Iterations 14
ExecutionTime = 0.36 s  ClockTime = 0 s

Time = 26

DICPCG:  Solving for T, Initial residual = 3.8385067e-05, Final residual = 6.642339e-07, No Iterations 14
ExecutionTime = 0.37 s  ClockTime = 0 s

Time = 27

DICPCG:  Solving for T, Initial residual = 3.0817459e-05, Final residual = 5.7222699e-07, No Iterations 14
ExecutionTime = 0.37 s  ClockTime = 0 s

Time = 28

DICPCG:  Solving for T, Initial residual = 2.4687936e-05, Final residual = 4.7966498e-07, No Iterations 14
ExecutionTime = 0.38 s  ClockTime = 0 s

Time = 29

DICPCG:  Solving for T, Initial residual = 1.9836978e-05, Final residual = 9.2547906e-07, No Iterations 13
ExecutionTime = 0.38 s  ClockTime = 0 s

Time = 30

DICPCG:  Solving for T, Initial residual = 1.5853426e-05, Final residual = 8.3539104e-07, No Iterations 13
ExecutionTime = 0.45 s  ClockTime = 0 s

Time = 31

DICPCG:  Solving for T, Initial residual = 1.276197e-05, Final residual = 7.2728449e-07, No Iterations 13
ExecutionTime = 0.46 s  ClockTime = 0 s

Time = 32

DICPCG:  Solving for T, Initial residual = 1.018978e-05, Final residual = 6.2864525e-07, No Iterations 13
ExecutionTime = 0.46 s  ClockTime = 0 s

Time = 33

DICPCG:  Solving for T, Initial residual = 8.2391005e-06, Final residual = 6.267309e-07, No Iterations 13
ExecutionTime = 0.47 s  ClockTime = 0 s

Time = 34

DICPCG:  Solving for T, Initial residual = 6.5574638e-06, Final residual = 9.9369321e-07, No Iterations 11
ExecutionTime = 0.47 s  ClockTime = 0 s

Time = 35

DICPCG:  Solving for T, Initial residual = 5.3220976e-06, Final residual = 8.9283571e-07, No Iterations 13
ExecutionTime = 0.48 s  ClockTime = 0 s

Time = 36

DICPCG:  Solving for T, Initial residual = 4.2509554e-06, Final residual = 7.797236e-07, No Iterations 11
ExecutionTime = 0.48 s  ClockTime = 0 s

Time = 37

DICPCG:  Solving for T, Initial residual = 3.4734568e-06, Final residual = 9.8496932e-07, No Iterations 12
ExecutionTime = 0.48 s  ClockTime = 0 s

Time = 38

DICPCG:  Solving for T, Initial residual = 2.7774098e-06, Final residual = 7.2751314e-07, No Iterations 11
ExecutionTime = 0.49 s  ClockTime = 0 s

Time = 39

DICPCG:  Solving for T, Initial residual = 2.2757469e-06, Final residual = 8.509868e-07, No Iterations 13
ExecutionTime = 0.49 s  ClockTime = 0 s

Time = 40

DICPCG:  Solving for T, Initial residual = 1.8672349e-06, Final residual = 7.1100042e-07, No Iterations 10
ExecutionTime = 0.56 s  ClockTime = 0 s

Time = 41

DICPCG:  Solving for T, Initial residual = 1.5372472e-06, Final residual = 9.178338e-07, No Iterations 10
ExecutionTime = 0.57 s  ClockTime = 0 s

Time = 42

DICPCG:  Solving for T, Initial residual = 1.344233e-06, Final residual = 9.6207343e-07, No Iterations 12
ExecutionTime = 0.57 s  ClockTime = 0 s

Time = 43

DICPCG:  Solving for T, Initial residual = 1.2946701e-06, Final residual = 8.8803722e-07, No Iterations 10
ExecutionTime = 0.58 s  ClockTime = 0 s

Time = 44

DICPCG:  Solving for T, Initial residual = 1.0917411e-06, Final residual = 9.9173871e-07, No Iterations 11
ExecutionTime = 0.58 s  ClockTime = 0 s

Time = 45

DICPCG:  Solving for T, Initial residual = 1.1292905e-06, Final residual = 9.6325853e-07, No Iterations 10
ExecutionTime = 0.59 s  ClockTime = 0 s

Time = 46

DICPCG:  Solving for T, Initial residual = 1.0226828e-06, Final residual = 8.2698704e-07, No Iterations 1
ExecutionTime = 0.59 s  ClockTime = 0 s

Time = 47

DICPCG:  Solving for T, Initial residual = 8.2881436e-07, Final residual = 8.2881436e-07, No Iterations 0
ExecutionTime = 0.59 s  ClockTime = 0 s

Time = 48

DICPCG:  Solving for T, Initial residual = 8.2881436e-07, Final residual = 8.2881436e-07, No Iterations 0
ExecutionTime = 0.6 s  ClockTime = 0 s

Time = 49

DICPCG:  Solving for T, Initial residual = 8.2881436e-07, Final residual = 8.2881436e-07, No Iterations 0
ExecutionTime = 0.6 s  ClockTime = 0 s

Time = 50

DICPCG:  Solving for T, Initial residual = 8.2881436e-07, Final residual = 8.2881436e-07, No Iterations 0
ExecutionTime = 0.67 s  ClockTime = 0 s


The simulation of FOM is finishing at 0.67 s.


The solver is finishing at 0.72 s.

